<routes>

    <route id="1" edges="4i 3o"/>
    <route id="2" edges="6i 7o"/>
    <route id="3" edges="4i 3o"/>
    <route id="4" edges="2i 1o 5o"/>
    <route id="5" edges="2i 1o 5o"/>
    <route id="6" edges="3i 4o"/>
    <route id="7" edges="7i 6o"/>
    <route id="8" edges="7i 6o"/>
    <route id="9" edges="7i 6o"/>
    <route id="10" edges="2i 1o 5o"/>
    <route id="11" edges="5i 1i 2o"/>
    <route id="12" edges="7i 6o"/>
    <route id="13" edges="2i 1o 5o"/>
    <route id="14" edges="6i 7o"/>
    <route id="15" edges="2i 1o 5o"/>
    <route id="16" edges="3i 4o"/>
    <route id="17" edges="2i 1o 5o"/>
    <route id="18" edges="5i 1i 2o"/>
    <route id="19" edges="6i 7o"/>
    <route id="20" edges="5i 1i 2o"/>
    <route id="21" edges="4i 3o"/>
    <route id="22" edges="2i 1o 5o"/>
    <route id="23" edges="7i 6o"/>
    <route id="24" edges="3i 4o"/>
    <route id="25" edges="3i 4o"/>
    <route id="26" edges="7i 6o"/>
    <route id="27" edges="5i 1i 2o"/>
    <route id="28" edges="3i 4o"/>
    <route id="29" edges="2i 1o 5o"/>
    <route id="30" edges="3i 4o"/>
    <route id="31" edges="3i 4o"/>
    <route id="32" edges="5i 1i 2o"/>
    <route id="33" edges="4i 3o"/>
    <route id="34" edges="6i 7o"/>
    <route id="35" edges="6i 7o"/>
    <route id="36" edges="5i 1i 2o"/>
    <route id="37" edges="2i 1o 5o"/>
    <route id="38" edges="2i 1o 5o"/>
    <route id="39" edges="3i 4o"/>
    <route id="40" edges="2i 1o 5o"/>
    <route id="41" edges="4i 3o"/>
    <route id="42" edges="5i 1i 2o"/>
    <route id="43" edges="3i 4o"/>
    <route id="44" edges="3i 4o"/>
    <route id="45" edges="3i 4o"/>
    <route id="46" edges="7i 6o"/>
    <route id="47" edges="4i 3o"/>
    <route id="48" edges="3i 4o"/>
    <route id="49" edges="2i 1o 5o"/>
    <route id="50" edges="4i 3o"/>
    <route id="51" edges="4i 3o"/>
    <route id="52" edges="4i 3o"/>
    <route id="53" edges="2i 1o 5o"/>
    <route id="54" edges="2i 1o 5o"/>
    <route id="55" edges="2i 1o 5o"/>
    <route id="56" edges="7i 6o"/>
    <route id="57" edges="6i 7o"/>
    <route id="58" edges="7i 6o"/>
    <route id="59" edges="3i 4o"/>
    <route id="60" edges="2i 1o 5o"/>
    <route id="61" edges="2i 1o 5o"/>
    <route id="62" edges="4i 3o"/>
    <route id="63" edges="5i 1i 2o"/>
    <route id="64" edges="4i 3o"/>
    <route id="65" edges="6i 7o"/>
    <route id="66" edges="6i 7o"/>
    <route id="67" edges="7i 6o"/>
    <route id="68" edges="3i 4o"/>
    <route id="69" edges="6i 7o"/>
    <route id="70" edges="2i 1o 5o"/>
    <route id="71" edges="3i 4o"/>
    <route id="72" edges="7i 6o"/>
    <route id="73" edges="3i 4o"/>
    <route id="74" edges="3i 4o"/>
    <route id="75" edges="4i 3o"/>
    <route id="76" edges="4i 3o"/>
    <route id="77" edges="2i 1o 5o"/>
    <route id="78" edges="6i 7o"/>
    <route id="79" edges="3i 4o"/>
    <route id="80" edges="3i 4o"/>
    <route id="81" edges="2i 1o 5o"/>
    <route id="82" edges="7i 6o"/>
    <route id="83" edges="4i 3o"/>
    <route id="84" edges="7i 6o"/>
    <route id="85" edges="2i 1o 5o"/>
    <route id="86" edges="7i 6o"/>
    <route id="87" edges="3i 4o"/>
    <route id="88" edges="5i 1i 2o"/>
    <route id="89" edges="2i 1o 5o"/>
    <route id="90" edges="2i 1o 5o"/>
    <route id="91" edges="3i 4o"/>
    <route id="92" edges="5i 1i 2o"/>
    <route id="93" edges="7i 6o"/>
    <route id="94" edges="7i 6o"/>
    <route id="95" edges="5i 1i 2o"/>
    <route id="96" edges="5i 1i 2o"/>
    <route id="97" edges="7i 6o"/>
    <route id="98" edges="4i 3o"/>
    <route id="99" edges="4i 3o"/>
    <route id="100" edges="3i 4o"/>
    <route id="101" edges="4i 3o"/>
    <route id="102" edges="6i 7o"/>
    <route id="103" edges="3i 4o"/>
    <route id="104" edges="3i 4o"/>
    <route id="105" edges="4i 3o"/>
    <route id="106" edges="7i 6o"/>
    <route id="107" edges="7i 6o"/>
    <route id="108" edges="6i 7o"/>
    <route id="109" edges="5i 1i 2o"/>
    <route id="110" edges="6i 7o"/>
    <route id="111" edges="7i 6o"/>
    <route id="112" edges="5i 1i 2o"/>
    <route id="113" edges="2i 1o 5o"/>
    <route id="114" edges="3i 4o"/>
    <route id="115" edges="2i 1o 5o"/>
    <route id="116" edges="3i 4o"/>
    <route id="117" edges="7i 6o"/>
    <route id="118" edges="7i 6o"/>
    <route id="119" edges="6i 7o"/>
    <route id="120" edges="4i 3o"/>
    <route id="121" edges="5i 1i 2o"/>
    <route id="122" edges="6i 7o"/>
    <route id="123" edges="7i 6o"/>
    <route id="124" edges="3i 4o"/>
    <route id="125" edges="3i 4o"/>
    <route id="126" edges="4i 3o"/>
    <route id="127" edges="6i 7o"/>
    <route id="128" edges="5i 1i 2o"/>
    <route id="129" edges="2i 1o 5o"/>
    <route id="130" edges="7i 6o"/>
    <route id="131" edges="6i 7o"/>
    <route id="132" edges="4i 3o"/>
    <route id="133" edges="6i 7o"/>
    <route id="134" edges="4i 3o"/>
    <route id="135" edges="2i 1o 5o"/>
    <route id="136" edges="7i 6o"/>
    <route id="137" edges="3i 4o"/>
    <route id="138" edges="7i 6o"/>
    <route id="139" edges="5i 1i 2o"/>
    <route id="140" edges="6i 7o"/>
    <route id="141" edges="7i 6o"/>
    <route id="142" edges="7i 6o"/>
    <route id="143" edges="6i 7o"/>
    <route id="144" edges="4i 3o"/>
    <route id="145" edges="4i 3o"/>
    <route id="146" edges="5i 1i 2o"/>
    <route id="147" edges="7i 6o"/>
    <route id="148" edges="6i 7o"/>
    <route id="149" edges="4i 3o"/>
    <route id="150" edges="4i 3o"/>
    <route id="151" edges="3i 4o"/>
    <route id="152" edges="6i 7o"/>
    <route id="153" edges="6i 7o"/>
    <route id="154" edges="6i 7o"/>
    <route id="155" edges="6i 7o"/>
    <route id="156" edges="6i 7o"/>
    <route id="157" edges="5i 1i 2o"/>
    <route id="158" edges="7i 6o"/>
    <route id="159" edges="3i 4o"/>
    <route id="160" edges="7i 6o"/>
    <route id="161" edges="4i 3o"/>
    <route id="162" edges="2i 1o 5o"/>
    <route id="163" edges="5i 1i 2o"/>
    <route id="164" edges="5i 1i 2o"/>
    <route id="165" edges="3i 4o"/>
    <route id="166" edges="7i 6o"/>
    <route id="167" edges="7i 6o"/>
    <route id="168" edges="5i 1i 2o"/>
    <route id="169" edges="5i 1i 2o"/>
    <route id="170" edges="2i 1o 5o"/>
    <route id="171" edges="5i 1i 2o"/>
    <route id="172" edges="3i 4o"/>
    <route id="173" edges="7i 6o"/>
    <route id="174" edges="2i 1o 5o"/>
    <route id="175" edges="6i 7o"/>
    <route id="176" edges="3i 4o"/>
    <route id="177" edges="3i 4o"/>
    <route id="178" edges="7i 6o"/>
    <route id="179" edges="5i 1i 2o"/>
    <route id="180" edges="4i 3o"/>
    <route id="181" edges="6i 7o"/>
    <route id="182" edges="7i 6o"/>
    <route id="183" edges="5i 1i 2o"/>
    <route id="184" edges="2i 1o 5o"/>
    <route id="185" edges="7i 6o"/>
    <route id="186" edges="6i 7o"/>
    <route id="187" edges="4i 3o"/>
    <route id="188" edges="5i 1i 2o"/>
    <route id="189" edges="7i 6o"/>
    <route id="190" edges="3i 4o"/>
    <route id="191" edges="6i 7o"/>
    <route id="192" edges="4i 3o"/>
    <route id="193" edges="3i 4o"/>
    <route id="194" edges="7i 6o"/>
    <route id="195" edges="6i 7o"/>
    <route id="196" edges="5i 1i 2o"/>
    <route id="197" edges="7i 6o"/>
    <route id="198" edges="3i 4o"/>
    <route id="199" edges="2i 1o 5o"/>
    <route id="200" edges="5i 1i 2o"/>
    <route id="201" edges="2i 1o 5o"/>
    <route id="202" edges="6i 7o"/>
    <route id="203" edges="5i 1i 2o"/>
    <route id="204" edges="7i 6o"/>
    <route id="205" edges="3i 4o"/>
    <route id="206" edges="5i 1i 2o"/>
    <route id="207" edges="4i 3o"/>
    <route id="208" edges="5i 1i 2o"/>
    <route id="209" edges="7i 6o"/>
    <route id="210" edges="7i 6o"/>
    <route id="211" edges="2i 1o 5o"/>
    <route id="212" edges="4i 3o"/>
    <route id="213" edges="4i 3o"/>
    <route id="214" edges="6i 7o"/>
    <route id="215" edges="2i 1o 5o"/>
    <route id="216" edges="5i 1i 2o"/>
    <route id="217" edges="3i 4o"/>
    <route id="218" edges="6i 7o"/>
    <route id="219" edges="5i 1i 2o"/>
    <route id="220" edges="3i 4o"/>
    <route id="221" edges="2i 1o 5o"/>
    <route id="222" edges="7i 6o"/>
    <route id="223" edges="2i 1o 5o"/>
    <route id="224" edges="6i 7o"/>
    <route id="225" edges="6i 7o"/>
    <route id="226" edges="2i 1o 5o"/>
    <route id="227" edges="4i 3o"/>
    <route id="228" edges="3i 4o"/>
    <route id="229" edges="6i 7o"/>
    <route id="230" edges="4i 3o"/>
    <route id="231" edges="3i 4o"/>
    <route id="232" edges="3i 4o"/>
    <route id="233" edges="6i 7o"/>
    <route id="234" edges="5i 1i 2o"/>
    <route id="235" edges="5i 1i 2o"/>
    <route id="236" edges="4i 3o"/>
    <route id="237" edges="2i 1o 5o"/>
    <route id="238" edges="4i 3o"/>
    <route id="239" edges="2i 1o 5o"/>
    <route id="240" edges="3i 4o"/>
    <route id="241" edges="5i 1i 2o"/>
    <route id="242" edges="6i 7o"/>
    <route id="243" edges="6i 7o"/>
    <route id="244" edges="3i 4o"/>
    <route id="245" edges="3i 4o"/>
    <route id="246" edges="3i 4o"/>
    <route id="247" edges="3i 4o"/>
    <route id="248" edges="2i 1o 5o"/>
    <route id="249" edges="3i 4o"/>
    <route id="250" edges="6i 7o"/>
    <route id="251" edges="4i 3o"/>
    <route id="252" edges="6i 7o"/>
    <route id="253" edges="6i 7o"/>
    <route id="254" edges="4i 3o"/>
    <route id="255" edges="5i 1i 2o"/>
    <route id="256" edges="4i 3o"/>
    <route id="257" edges="2i 1o 5o"/>
    <route id="258" edges="6i 7o"/>
    <route id="259" edges="3i 4o"/>
    <route id="260" edges="6i 7o"/>
    <route id="261" edges="3i 4o"/>
    <route id="262" edges="5i 1i 2o"/>
    <route id="263" edges="5i 1i 2o"/>
    <route id="264" edges="6i 7o"/>
    <route id="265" edges="3i 4o"/>
    <route id="266" edges="7i 6o"/>
    <route id="267" edges="6i 7o"/>
    <route id="268" edges="5i 1i 2o"/>
    <route id="269" edges="5i 1i 2o"/>
    <route id="270" edges="3i 4o"/>
    <route id="271" edges="5i 1i 2o"/>
    <route id="272" edges="2i 1o 5o"/>
    <route id="273" edges="7i 6o"/>
    <route id="274" edges="4i 3o"/>
    <route id="275" edges="6i 7o"/>
    <route id="276" edges="4i 3o"/>
    <route id="277" edges="3i 4o"/>
    <route id="278" edges="6i 7o"/>
    <route id="279" edges="7i 6o"/>
    <route id="280" edges="4i 3o"/>
    <route id="281" edges="2i 1o 5o"/>
    <route id="282" edges="3i 4o"/>
    <route id="283" edges="7i 6o"/>
    <route id="284" edges="4i 3o"/>
    <route id="285" edges="6i 7o"/>
    <route id="286" edges="6i 7o"/>
    <route id="287" edges="5i 1i 2o"/>
    <route id="288" edges="7i 6o"/>
    <route id="289" edges="5i 1i 2o"/>
    <route id="290" edges="6i 7o"/>
    <route id="291" edges="2i 1o 5o"/>
    <route id="292" edges="4i 3o"/>
    <route id="293" edges="4i 3o"/>
    <route id="294" edges="2i 1o 5o"/>
    <route id="295" edges="3i 4o"/>
    <route id="296" edges="4i 3o"/>
    <route id="297" edges="2i 1o 5o"/>
    <route id="298" edges="5i 1i 2o"/>
    <route id="299" edges="6i 7o"/>
    <route id="300" edges="6i 7o"/>
    <route id="301" edges="3i 4o"/>
    <route id="302" edges="2i 1o 5o"/>
    <route id="303" edges="6i 7o"/>
    <route id="304" edges="4i 3o"/>
    <route id="305" edges="5i 1i 2o"/>
    <route id="306" edges="5i 1i 2o"/>
    <route id="307" edges="5i 1i 2o"/>
    <route id="308" edges="3i 4o"/>
    <route id="309" edges="4i 3o"/>
    <route id="310" edges="4i 3o"/>
    <route id="311" edges="2i 1o 5o"/>
    <route id="312" edges="3i 4o"/>
    <route id="313" edges="3i 4o"/>
    <route id="314" edges="5i 1i 2o"/>
    <route id="315" edges="3i 4o"/>
    <route id="316" edges="7i 6o"/>
    <route id="317" edges="2i 1o 5o"/>
    <route id="318" edges="4i 3o"/>
    <route id="319" edges="6i 7o"/>
    <route id="320" edges="7i 6o"/>
    <route id="321" edges="5i 1i 2o"/>
    <route id="322" edges="5i 1i 2o"/>
    <route id="323" edges="3i 4o"/>
    <route id="324" edges="2i 1o 5o"/>
    <route id="325" edges="4i 3o"/>
    <route id="326" edges="6i 7o"/>
    <route id="327" edges="7i 6o"/>
    <route id="328" edges="7i 6o"/>
    <route id="329" edges="6i 7o"/>
    <route id="330" edges="5i 1i 2o"/>
    <route id="331" edges="4i 3o"/>
    <route id="332" edges="7i 6o"/>
    <route id="333" edges="2i 1o 5o"/>
    <route id="334" edges="5i 1i 2o"/>
    <route id="335" edges="2i 1o 5o"/>
    <route id="336" edges="6i 7o"/>
    <route id="337" edges="7i 6o"/>
    <route id="338" edges="3i 4o"/>
    <route id="339" edges="5i 1i 2o"/>
    <route id="340" edges="3i 4o"/>
    <route id="341" edges="5i 1i 2o"/>
    <route id="342" edges="7i 6o"/>
    <route id="343" edges="4i 3o"/>
    <route id="344" edges="6i 7o"/>
    <route id="345" edges="7i 6o"/>
    <route id="346" edges="6i 7o"/>
    <route id="347" edges="5i 1i 2o"/>
    <route id="348" edges="4i 3o"/>
    <route id="349" edges="2i 1o 5o"/>
    <route id="350" edges="5i 1i 2o"/>
    <route id="351" edges="5i 1i 2o"/>
    <route id="352" edges="3i 4o"/>
    <route id="353" edges="3i 4o"/>
    <route id="354" edges="4i 3o"/>
    <route id="355" edges="3i 4o"/>
    <route id="356" edges="3i 4o"/>
    <route id="357" edges="7i 6o"/>
    <route id="358" edges="6i 7o"/>
    <route id="359" edges="6i 7o"/>
    <route id="360" edges="2i 1o 5o"/>
    <route id="361" edges="5i 1i 2o"/>
    <route id="362" edges="4i 3o"/>
    <route id="363" edges="4i 3o"/>
    <route id="364" edges="2i 1o 5o"/>
    <route id="365" edges="2i 1o 5o"/>
    <route id="366" edges="2i 1o 5o"/>
    <route id="367" edges="4i 3o"/>
    <route id="368" edges="3i 4o"/>
    <route id="369" edges="4i 3o"/>
    <route id="370" edges="6i 7o"/>
    <route id="371" edges="3i 4o"/>
    <route id="372" edges="5i 1i 2o"/>
    <route id="373" edges="5i 1i 2o"/>
    <route id="374" edges="6i 7o"/>
    <route id="375" edges="5i 1i 2o"/>
    <route id="376" edges="2i 1o 5o"/>
    <route id="377" edges="3i 4o"/>
    <route id="378" edges="4i 3o"/>
    <route id="379" edges="4i 3o"/>
    <route id="380" edges="7i 6o"/>
    <route id="381" edges="5i 1i 2o"/>
    <route id="382" edges="6i 7o"/>
    <route id="383" edges="5i 1i 2o"/>

    <vehicle id="1_22" route="1" depart="22" />
    <vehicle id="2_26" route="2" depart="26" />
    <vehicle id="3_28" route="3" depart="28" />
    <vehicle id="4_32" route="4" depart="32" />
    <vehicle id="5_43" route="5" depart="43" />
    <vehicle id="6_60" route="6" depart="60" />
    <vehicle id="7_65" route="7" depart="65" />
    <vehicle id="8_74" route="8" depart="74" />
    <vehicle id="9_96" route="9" depart="96" />
    <vehicle id="10_115" route="10" depart="115" />
    <vehicle id="11_116" route="11" depart="116" />
    <vehicle id="12_135" route="12" depart="135" />
    <vehicle id="13_163" route="13" depart="163" />
    <vehicle id="14_180" route="14" depart="180" />
    <vehicle id="15_193" route="15" depart="193" />
    <vehicle id="16_203" route="16" depart="203" />
    <vehicle id="17_210" route="17" depart="210" />
    <vehicle id="18_228" route="18" depart="228" />
    <vehicle id="19_233" route="19" depart="233" />
    <vehicle id="20_240" route="20" depart="240" />
    <vehicle id="21_253" route="21" depart="253" />
    <vehicle id="22_257" route="22" depart="257" />
    <vehicle id="23_281" route="23" depart="281" />
    <vehicle id="24_292" route="24" depart="292" />
    <vehicle id="25_295" route="25" depart="295" />
    <vehicle id="26_297" route="26" depart="297" />
    <vehicle id="27_301" route="27" depart="301" />
    <vehicle id="28_303" route="28" depart="303" />
    <vehicle id="29_305" route="29" depart="305" />
    <vehicle id="30_324" route="30" depart="324" />
    <vehicle id="31_347" route="31" depart="347" />
    <vehicle id="32_350" route="32" depart="350" />
    <vehicle id="33_354" route="33" depart="354" />
    <vehicle id="34_367" route="34" depart="367" />
    <vehicle id="35_378" route="35" depart="378" />
    <vehicle id="36_397" route="36" depart="397" />
    <vehicle id="37_432" route="37" depart="432" />
    <vehicle id="38_433" route="38" depart="433" />
    <vehicle id="39_449" route="39" depart="449" />
    <vehicle id="40_473" route="40" depart="473" />
    <vehicle id="41_476" route="41" depart="476" />
    <vehicle id="42_477" route="42" depart="477" />
    <vehicle id="43_503" route="43" depart="503" />
    <vehicle id="44_526" route="44" depart="526" />
    <vehicle id="45_532" route="45" depart="532" />
    <vehicle id="46_541" route="46" depart="541" />
    <vehicle id="47_543" route="47" depart="543" />
    <vehicle id="48_552" route="48" depart="552" />
    <vehicle id="49_555" route="49" depart="555" />
    <vehicle id="50_563" route="50" depart="563" />
    <vehicle id="51_572" route="51" depart="572" />
    <vehicle id="52_574" route="52" depart="574" />
    <vehicle id="53_580" route="53" depart="580" />
    <vehicle id="54_594" route="54" depart="594" />
    <vehicle id="55_595" route="55" depart="595" />
    <vehicle id="56_616" route="56" depart="616" />
    <vehicle id="57_623" route="57" depart="623" />
    <vehicle id="58_658" route="58" depart="658" />
    <vehicle id="59_670" route="59" depart="670" />
    <vehicle id="60_699" route="60" depart="699" />
    <vehicle id="61_701" route="61" depart="701" />
    <vehicle id="62_703" route="62" depart="703" />
    <vehicle id="63_704" route="63" depart="704" />
    <vehicle id="64_715" route="64" depart="715" />
    <vehicle id="65_725" route="65" depart="725" />
    <vehicle id="66_728" route="66" depart="728" />
    <vehicle id="67_733" route="67" depart="733" />
    <vehicle id="68_735" route="68" depart="735" />
    <vehicle id="69_769" route="69" depart="769" />
    <vehicle id="70_776" route="70" depart="776" />
    <vehicle id="71_779" route="71" depart="779" />
    <vehicle id="72_789" route="72" depart="789" />
    <vehicle id="73_796" route="73" depart="796" />
    <vehicle id="74_806" route="74" depart="806" />
    <vehicle id="75_815" route="75" depart="815" />
    <vehicle id="76_819" route="76" depart="819" />
    <vehicle id="77_855" route="77" depart="855" />
    <vehicle id="78_857" route="78" depart="857" />
    <vehicle id="79_869" route="79" depart="869" />
    <vehicle id="80_876" route="80" depart="876" />
    <vehicle id="81_880" route="81" depart="880" />
    <vehicle id="82_903" route="82" depart="903" />
    <vehicle id="83_917" route="83" depart="917" />
    <vehicle id="84_928" route="84" depart="928" />
    <vehicle id="85_929" route="85" depart="929" />
    <vehicle id="86_933" route="86" depart="933" />
    <vehicle id="87_944" route="87" depart="944" />
    <vehicle id="88_947" route="88" depart="947" />
    <vehicle id="89_949" route="89" depart="949" />
    <vehicle id="90_956" route="90" depart="956" />
    <vehicle id="91_960" route="91" depart="960" />
    <vehicle id="92_971" route="92" depart="971" />
    <vehicle id="93_972" route="93" depart="972" />
    <vehicle id="94_1003" route="94" depart="1003" />
    <vehicle id="95_1006" route="95" depart="1006" />
    <vehicle id="96_1013" route="96" depart="1013" />
    <vehicle id="97_1019" route="97" depart="1019" />
    <vehicle id="98_1029" route="98" depart="1029" />
    <vehicle id="99_1061" route="99" depart="1061" />
    <vehicle id="100_1067" route="100" depart="1067" />
    <vehicle id="101_1072" route="101" depart="1072" />
    <vehicle id="102_1082" route="102" depart="1082" />
    <vehicle id="103_1085" route="103" depart="1085" />
    <vehicle id="104_1096" route="104" depart="1096" />
    <vehicle id="105_1123" route="105" depart="1123" />
    <vehicle id="106_1136" route="106" depart="1136" />
    <vehicle id="107_1147" route="107" depart="1147" />
    <vehicle id="108_1154" route="108" depart="1154" />
    <vehicle id="109_1155" route="109" depart="1155" />
    <vehicle id="110_1161" route="110" depart="1161" />
    <vehicle id="111_1167" route="111" depart="1167" />
    <vehicle id="112_1176" route="112" depart="1176" />
    <vehicle id="113_1184" route="113" depart="1184" />
    <vehicle id="114_1185" route="114" depart="1185" />
    <vehicle id="115_1192" route="115" depart="1192" />
    <vehicle id="116_1220" route="116" depart="1220" />
    <vehicle id="117_1222" route="117" depart="1222" />
    <vehicle id="118_1223" route="118" depart="1223" />
    <vehicle id="119_1227" route="119" depart="1227" />
    <vehicle id="120_1234" route="120" depart="1234" />
    <vehicle id="121_1248" route="121" depart="1248" />
    <vehicle id="122_1249" route="122" depart="1249" />
    <vehicle id="123_1250" route="123" depart="1250" />
    <vehicle id="124_1261" route="124" depart="1261" />
    <vehicle id="125_1288" route="125" depart="1288" />
    <vehicle id="126_1294" route="126" depart="1294" />
    <vehicle id="127_1304" route="127" depart="1304" />
    <vehicle id="128_1306" route="128" depart="1306" />
    <vehicle id="129_1312" route="129" depart="1312" />
    <vehicle id="130_1315" route="130" depart="1315" />
    <vehicle id="131_1318" route="131" depart="1318" />
    <vehicle id="132_1322" route="132" depart="1322" />
    <vehicle id="133_1328" route="133" depart="1328" />
    <vehicle id="134_1351" route="134" depart="1351" />
    <vehicle id="135_1354" route="135" depart="1354" />
    <vehicle id="136_1364" route="136" depart="1364" />
    <vehicle id="137_1368" route="137" depart="1368" />
    <vehicle id="138_1376" route="138" depart="1376" />
    <vehicle id="139_1380" route="139" depart="1380" />
    <vehicle id="140_1382" route="140" depart="1382" />
    <vehicle id="141_1383" route="141" depart="1383" />
    <vehicle id="142_1389" route="142" depart="1389" />
    <vehicle id="143_1411" route="143" depart="1411" />
    <vehicle id="144_1413" route="144" depart="1413" />
    <vehicle id="145_1414" route="145" depart="1414" />
    <vehicle id="146_1434" route="146" depart="1434" />
    <vehicle id="147_1442" route="147" depart="1442" />
    <vehicle id="148_1453" route="148" depart="1453" />
    <vehicle id="149_1482" route="149" depart="1482" />
    <vehicle id="150_1494" route="150" depart="1494" />
    <vehicle id="151_1499" route="151" depart="1499" />
    <vehicle id="152_1521" route="152" depart="1521" />
    <vehicle id="153_1523" route="153" depart="1523" />
    <vehicle id="154_1529" route="154" depart="1529" />
    <vehicle id="155_1539" route="155" depart="1539" />
    <vehicle id="156_1546" route="156" depart="1546" />
    <vehicle id="157_1548" route="157" depart="1548" />
    <vehicle id="158_1550" route="158" depart="1550" />
    <vehicle id="159_1552" route="159" depart="1552" />
    <vehicle id="160_1555" route="160" depart="1555" />
    <vehicle id="161_1558" route="161" depart="1558" />
    <vehicle id="162_1559" route="162" depart="1559" />
    <vehicle id="163_1560" route="163" depart="1560" />
    <vehicle id="164_1567" route="164" depart="1567" />
    <vehicle id="165_1582" route="165" depart="1582" />
    <vehicle id="166_1583" route="166" depart="1583" />
    <vehicle id="167_1591" route="167" depart="1591" />
    <vehicle id="168_1594" route="168" depart="1594" />
    <vehicle id="169_1597" route="169" depart="1597" />
    <vehicle id="170_1612" route="170" depart="1612" />
    <vehicle id="171_1637" route="171" depart="1637" />
    <vehicle id="172_1640" route="172" depart="1640" />
    <vehicle id="173_1642" route="173" depart="1642" />
    <vehicle id="174_1650" route="174" depart="1650" />
    <vehicle id="175_1665" route="175" depart="1665" />
    <vehicle id="176_1681" route="176" depart="1681" />
    <vehicle id="177_1713" route="177" depart="1713" />
    <vehicle id="178_1724" route="178" depart="1724" />
    <vehicle id="179_1730" route="179" depart="1730" />
    <vehicle id="180_1732" route="180" depart="1732" />
    <vehicle id="181_1736" route="181" depart="1736" />
    <vehicle id="182_1752" route="182" depart="1752" />
    <vehicle id="183_1783" route="183" depart="1783" />
    <vehicle id="184_1791" route="184" depart="1791" />
    <vehicle id="185_1793" route="185" depart="1793" />
    <vehicle id="186_1800" route="186" depart="1800" />
    <vehicle id="187_1816" route="187" depart="1816" />
    <vehicle id="188_1820" route="188" depart="1820" />
    <vehicle id="189_1824" route="189" depart="1824" />
    <vehicle id="190_1836" route="190" depart="1836" />
    <vehicle id="191_1837" route="191" depart="1837" />
    <vehicle id="192_1842" route="192" depart="1842" />
    <vehicle id="193_1852" route="193" depart="1852" />
    <vehicle id="194_1861" route="194" depart="1861" />
    <vehicle id="195_1867" route="195" depart="1867" />
    <vehicle id="196_1871" route="196" depart="1871" />
    <vehicle id="197_1887" route="197" depart="1887" />
    <vehicle id="198_1903" route="198" depart="1903" />
    <vehicle id="199_1904" route="199" depart="1904" />
    <vehicle id="200_1933" route="200" depart="1933" />
    <vehicle id="201_1939" route="201" depart="1939" />
    <vehicle id="202_1941" route="202" depart="1941" />
    <vehicle id="203_1942" route="203" depart="1942" />
    <vehicle id="204_1957" route="204" depart="1957" />
    <vehicle id="205_1999" route="205" depart="1999" />
    <vehicle id="206_2006" route="206" depart="2006" />
    <vehicle id="207_2029" route="207" depart="2029" />
    <vehicle id="208_2043" route="208" depart="2043" />
    <vehicle id="209_2050" route="209" depart="2050" />
    <vehicle id="210_2060" route="210" depart="2060" />
    <vehicle id="211_2062" route="211" depart="2062" />
    <vehicle id="212_2063" route="212" depart="2063" />
    <vehicle id="213_2083" route="213" depart="2083" />
    <vehicle id="214_2085" route="214" depart="2085" />
    <vehicle id="215_2103" route="215" depart="2103" />
    <vehicle id="216_2105" route="216" depart="2105" />
    <vehicle id="217_2107" route="217" depart="2107" />
    <vehicle id="218_2123" route="218" depart="2123" />
    <vehicle id="219_2125" route="219" depart="2125" />
    <vehicle id="220_2132" route="220" depart="2132" />
    <vehicle id="221_2148" route="221" depart="2148" />
    <vehicle id="222_2153" route="222" depart="2153" />
    <vehicle id="223_2158" route="223" depart="2158" />
    <vehicle id="224_2167" route="224" depart="2167" />
    <vehicle id="225_2172" route="225" depart="2172" />
    <vehicle id="226_2173" route="226" depart="2173" />
    <vehicle id="227_2183" route="227" depart="2183" />
    <vehicle id="228_2188" route="228" depart="2188" />
    <vehicle id="229_2191" route="229" depart="2191" />
    <vehicle id="230_2195" route="230" depart="2195" />
    <vehicle id="231_2225" route="231" depart="2225" />
    <vehicle id="232_2233" route="232" depart="2233" />
    <vehicle id="233_2238" route="233" depart="2238" />
    <vehicle id="234_2242" route="234" depart="2242" />
    <vehicle id="235_2248" route="235" depart="2248" />
    <vehicle id="236_2254" route="236" depart="2254" />
    <vehicle id="237_2264" route="237" depart="2264" />
    <vehicle id="238_2268" route="238" depart="2268" />
    <vehicle id="239_2274" route="239" depart="2274" />
    <vehicle id="240_2287" route="240" depart="2287" />
    <vehicle id="241_2311" route="241" depart="2311" />
    <vehicle id="242_2324" route="242" depart="2324" />
    <vehicle id="243_2338" route="243" depart="2338" />
    <vehicle id="244_2350" route="244" depart="2350" />
    <vehicle id="245_2355" route="245" depart="2355" />
    <vehicle id="246_2360" route="246" depart="2360" />
    <vehicle id="247_2387" route="247" depart="2387" />
    <vehicle id="248_2390" route="248" depart="2390" />
    <vehicle id="249_2391" route="249" depart="2391" />
    <vehicle id="250_2398" route="250" depart="2398" />
    <vehicle id="251_2403" route="251" depart="2403" />
    <vehicle id="252_2404" route="252" depart="2404" />
    <vehicle id="253_2421" route="253" depart="2421" />
    <vehicle id="254_2423" route="254" depart="2423" />
    <vehicle id="255_2429" route="255" depart="2429" />
    <vehicle id="256_2438" route="256" depart="2438" />
    <vehicle id="257_2445" route="257" depart="2445" />
    <vehicle id="258_2464" route="258" depart="2464" />
    <vehicle id="259_2471" route="259" depart="2471" />
    <vehicle id="260_2484" route="260" depart="2484" />
    <vehicle id="261_2493" route="261" depart="2493" />
    <vehicle id="262_2499" route="262" depart="2499" />
    <vehicle id="263_2514" route="263" depart="2514" />
    <vehicle id="264_2524" route="264" depart="2524" />
    <vehicle id="265_2539" route="265" depart="2539" />
    <vehicle id="266_2549" route="266" depart="2549" />
    <vehicle id="267_2573" route="267" depart="2573" />
    <vehicle id="268_2589" route="268" depart="2589" />
    <vehicle id="269_2603" route="269" depart="2603" />
    <vehicle id="270_2614" route="270" depart="2614" />
    <vehicle id="271_2622" route="271" depart="2622" />
    <vehicle id="272_2629" route="272" depart="2629" />
    <vehicle id="273_2630" route="273" depart="2630" />
    <vehicle id="274_2646" route="274" depart="2646" />
    <vehicle id="275_2653" route="275" depart="2653" />
    <vehicle id="276_2665" route="276" depart="2665" />
    <vehicle id="277_2669" route="277" depart="2669" />
    <vehicle id="278_2670" route="278" depart="2670" />
    <vehicle id="279_2690" route="279" depart="2690" />
    <vehicle id="280_2691" route="280" depart="2691" />
    <vehicle id="281_2695" route="281" depart="2695" />
    <vehicle id="282_2696" route="282" depart="2696" />
    <vehicle id="283_2709" route="283" depart="2709" />
    <vehicle id="284_2713" route="284" depart="2713" />
    <vehicle id="285_2722" route="285" depart="2722" />
    <vehicle id="286_2736" route="286" depart="2736" />
    <vehicle id="287_2737" route="287" depart="2737" />
    <vehicle id="288_2759" route="288" depart="2759" />
    <vehicle id="289_2763" route="289" depart="2763" />
    <vehicle id="290_2782" route="290" depart="2782" />
    <vehicle id="291_2784" route="291" depart="2784" />
    <vehicle id="292_2790" route="292" depart="2790" />