<routes>

    <route id="1" edges="6i 7o"/>
    <route id="2" edges="3i 4o"/>
    <route id="3" edges="5i 1i 2o"/>
    <route id="4" edges="5i 1i 2o"/>
    <route id="5" edges="3i 4o"/>
    <route id="6" edges="6i 7o"/>
    <route id="7" edges="3i 4o"/>
    <route id="8" edges="4i 3o"/>
    <route id="9" edges="2i 1o 5o"/>
    <route id="10" edges="6i 7o"/>
    <route id="11" edges="2i 1o 5o"/>
    <route id="12" edges="3i 4o"/>
    <route id="13" edges="4i 3o"/>
    <route id="14" edges="2i 1o 5o"/>
    <route id="15" edges="5i 1i 2o"/>
    <route id="16" edges="4i 3o"/>
    <route id="17" edges="3i 4o"/>
    <route id="18" edges="2i 1o 5o"/>
    <route id="19" edges="5i 1i 2o"/>
    <route id="20" edges="2i 1o 5o"/>
    <route id="21" edges="2i 1o 5o"/>
    <route id="22" edges="2i 1o 5o"/>
    <route id="23" edges="2i 1o 5o"/>
    <route id="24" edges="2i 1o 5o"/>
    <route id="25" edges="7i 6o"/>
    <route id="26" edges="4i 3o"/>
    <route id="27" edges="3i 4o"/>
    <route id="28" edges="6i 7o"/>
    <route id="29" edges="4i 3o"/>
    <route id="30" edges="6i 7o"/>
    <route id="31" edges="7i 6o"/>
    <route id="32" edges="4i 3o"/>
    <route id="33" edges="5i 1i 2o"/>
    <route id="34" edges="6i 7o"/>
    <route id="35" edges="2i 1o 5o"/>
    <route id="36" edges="5i 1i 2o"/>
    <route id="37" edges="2i 1o 5o"/>
    <route id="38" edges="6i 7o"/>
    <route id="39" edges="7i 6o"/>
    <route id="40" edges="5i 1i 2o"/>
    <route id="41" edges="7i 6o"/>
    <route id="42" edges="5i 1i 2o"/>
    <route id="43" edges="4i 3o"/>
    <route id="44" edges="3i 4o"/>
    <route id="45" edges="4i 3o"/>
    <route id="46" edges="3i 4o"/>
    <route id="47" edges="5i 1i 2o"/>
    <route id="48" edges="4i 3o"/>
    <route id="49" edges="4i 3o"/>
    <route id="50" edges="7i 6o"/>
    <route id="51" edges="6i 7o"/>
    <route id="52" edges="4i 3o"/>
    <route id="53" edges="2i 1o 5o"/>
    <route id="54" edges="2i 1o 5o"/>
    <route id="55" edges="4i 3o"/>
    <route id="56" edges="5i 1i 2o"/>
    <route id="57" edges="5i 1i 2o"/>
    <route id="58" edges="6i 7o"/>
    <route id="59" edges="5i 1i 2o"/>
    <route id="60" edges="6i 7o"/>
    <route id="61" edges="2i 1o 5o"/>
    <route id="62" edges="3i 4o"/>
    <route id="63" edges="6i 7o"/>
    <route id="64" edges="5i 1i 2o"/>
    <route id="65" edges="2i 1o 5o"/>
    <route id="66" edges="3i 4o"/>
    <route id="67" edges="3i 4o"/>
    <route id="68" edges="6i 7o"/>
    <route id="69" edges="7i 6o"/>
    <route id="70" edges="5i 1i 2o"/>
    <route id="71" edges="3i 4o"/>
    <route id="72" edges="6i 7o"/>
    <route id="73" edges="4i 3o"/>
    <route id="74" edges="3i 4o"/>
    <route id="75" edges="2i 1o 5o"/>
    <route id="76" edges="5i 1i 2o"/>
    <route id="77" edges="3i 4o"/>
    <route id="78" edges="2i 1o 5o"/>
    <route id="79" edges="5i 1i 2o"/>
    <route id="80" edges="2i 1o 5o"/>
    <route id="81" edges="3i 4o"/>
    <route id="82" edges="3i 4o"/>
    <route id="83" edges="4i 3o"/>
    <route id="84" edges="5i 1i 2o"/>
    <route id="85" edges="4i 3o"/>
    <route id="86" edges="7i 6o"/>
    <route id="87" edges="6i 7o"/>
    <route id="88" edges="5i 1i 2o"/>
    <route id="89" edges="4i 3o"/>
    <route id="90" edges="2i 1o 5o"/>
    <route id="91" edges="4i 3o"/>
    <route id="92" edges="7i 6o"/>
    <route id="93" edges="7i 6o"/>
    <route id="94" edges="5i 1i 2o"/>
    <route id="95" edges="2i 1o 5o"/>
    <route id="96" edges="2i 1o 5o"/>
    <route id="97" edges="5i 1i 2o"/>
    <route id="98" edges="5i 1i 2o"/>
    <route id="99" edges="3i 4o"/>
    <route id="100" edges="7i 6o"/>
    <route id="101" edges="5i 1i 2o"/>
    <route id="102" edges="7i 6o"/>
    <route id="103" edges="5i 1i 2o"/>
    <route id="104" edges="7i 6o"/>
    <route id="105" edges="7i 6o"/>
    <route id="106" edges="6i 7o"/>
    <route id="107" edges="5i 1i 2o"/>
    <route id="108" edges="7i 6o"/>
    <route id="109" edges="5i 1i 2o"/>
    <route id="110" edges="3i 4o"/>
    <route id="111" edges="5i 1i 2o"/>
    <route id="112" edges="4i 3o"/>
    <route id="113" edges="6i 7o"/>
    <route id="114" edges="3i 4o"/>
    <route id="115" edges="3i 4o"/>
    <route id="116" edges="7i 6o"/>
    <route id="117" edges="6i 7o"/>
    <route id="118" edges="5i 1i 2o"/>
    <route id="119" edges="7i 6o"/>
    <route id="120" edges="5i 1i 2o"/>
    <route id="121" edges="5i 1i 2o"/>
    <route id="122" edges="2i 1o 5o"/>
    <route id="123" edges="2i 1o 5o"/>
    <route id="124" edges="5i 1i 2o"/>
    <route id="125" edges="7i 6o"/>
    <route id="126" edges="7i 6o"/>
    <route id="127" edges="2i 1o 5o"/>
    <route id="128" edges="6i 7o"/>
    <route id="129" edges="3i 4o"/>
    <route id="130" edges="3i 4o"/>
    <route id="131" edges="2i 1o 5o"/>
    <route id="132" edges="7i 6o"/>
    <route id="133" edges="4i 3o"/>
    <route id="134" edges="3i 4o"/>
    <route id="135" edges="3i 4o"/>
    <route id="136" edges="3i 4o"/>
    <route id="137" edges="5i 1i 2o"/>
    <route id="138" edges="6i 7o"/>
    <route id="139" edges="6i 7o"/>
    <route id="140" edges="4i 3o"/>
    <route id="141" edges="6i 7o"/>
    <route id="142" edges="3i 4o"/>
    <route id="143" edges="5i 1i 2o"/>
    <route id="144" edges="4i 3o"/>
    <route id="145" edges="4i 3o"/>
    <route id="146" edges="2i 1o 5o"/>
    <route id="147" edges="2i 1o 5o"/>
    <route id="148" edges="7i 6o"/>
    <route id="149" edges="2i 1o 5o"/>
    <route id="150" edges="4i 3o"/>
    <route id="151" edges="2i 1o 5o"/>
    <route id="152" edges="3i 4o"/>
    <route id="153" edges="6i 7o"/>
    <route id="154" edges="2i 1o 5o"/>
    <route id="155" edges="7i 6o"/>
    <route id="156" edges="7i 6o"/>
    <route id="157" edges="2i 1o 5o"/>
    <route id="158" edges="3i 4o"/>
    <route id="159" edges="4i 3o"/>
    <route id="160" edges="5i 1i 2o"/>
    <route id="161" edges="2i 1o 5o"/>
    <route id="162" edges="5i 1i 2o"/>
    <route id="163" edges="2i 1o 5o"/>
    <route id="164" edges="5i 1i 2o"/>
    <route id="165" edges="4i 3o"/>
    <route id="166" edges="4i 3o"/>
    <route id="167" edges="6i 7o"/>
    <route id="168" edges="2i 1o 5o"/>
    <route id="169" edges="5i 1i 2o"/>
    <route id="170" edges="3i 4o"/>
    <route id="171" edges="6i 7o"/>
    <route id="172" edges="3i 4o"/>
    <route id="173" edges="3i 4o"/>
    <route id="174" edges="3i 4o"/>
    <route id="175" edges="2i 1o 5o"/>
    <route id="176" edges="7i 6o"/>
    <route id="177" edges="4i 3o"/>
    <route id="178" edges="7i 6o"/>
    <route id="179" edges="6i 7o"/>
    <route id="180" edges="6i 7o"/>
    <route id="181" edges="4i 3o"/>
    <route id="182" edges="7i 6o"/>
    <route id="183" edges="3i 4o"/>
    <route id="184" edges="2i 1o 5o"/>
    <route id="185" edges="4i 3o"/>
    <route id="186" edges="5i 1i 2o"/>
    <route id="187" edges="6i 7o"/>
    <route id="188" edges="6i 7o"/>
    <route id="189" edges="2i 1o 5o"/>
    <route id="190" edges="7i 6o"/>
    <route id="191" edges="2i 1o 5o"/>
    <route id="192" edges="7i 6o"/>
    <route id="193" edges="7i 6o"/>
    <route id="194" edges="7i 6o"/>
    <route id="195" edges="2i 1o 5o"/>
    <route id="196" edges="5i 1i 2o"/>
    <route id="197" edges="4i 3o"/>
    <route id="198" edges="2i 1o 5o"/>
    <route id="199" edges="3i 4o"/>
    <route id="200" edges="5i 1i 2o"/>
    <route id="201" edges="2i 1o 5o"/>
    <route id="202" edges="2i 1o 5o"/>
    <route id="203" edges="7i 6o"/>
    <route id="204" edges="7i 6o"/>
    <route id="205" edges="7i 6o"/>
    <route id="206" edges="7i 6o"/>
    <route id="207" edges="5i 1i 2o"/>
    <route id="208" edges="3i 4o"/>
    <route id="209" edges="6i 7o"/>
    <route id="210" edges="7i 6o"/>
    <route id="211" edges="7i 6o"/>
    <route id="212" edges="3i 4o"/>
    <route id="213" edges="6i 7o"/>
    <route id="214" edges="7i 6o"/>
    <route id="215" edges="4i 3o"/>
    <route id="216" edges="6i 7o"/>
    <route id="217" edges="7i 6o"/>
    <route id="218" edges="7i 6o"/>
    <route id="219" edges="4i 3o"/>
    <route id="220" edges="5i 1i 2o"/>
    <route id="221" edges="6i 7o"/>
    <route id="222" edges="4i 3o"/>
    <route id="223" edges="3i 4o"/>
    <route id="224" edges="7i 6o"/>
    <route id="225" edges="3i 4o"/>
    <route id="226" edges="4i 3o"/>
    <route id="227" edges="2i 1o 5o"/>
    <route id="228" edges="5i 1i 2o"/>
    <route id="229" edges="5i 1i 2o"/>
    <route id="230" edges="5i 1i 2o"/>
    <route id="231" edges="2i 1o 5o"/>
    <route id="232" edges="6i 7o"/>
    <route id="233" edges="5i 1i 2o"/>
    <route id="234" edges="5i 1i 2o"/>
    <route id="235" edges="5i 1i 2o"/>
    <route id="236" edges="2i 1o 5o"/>
    <route id="237" edges="7i 6o"/>
    <route id="238" edges="3i 4o"/>
    <route id="239" edges="2i 1o 5o"/>
    <route id="240" edges="6i 7o"/>
    <route id="241" edges="2i 1o 5o"/>
    <route id="242" edges="7i 6o"/>
    <route id="243" edges="5i 1i 2o"/>
    <route id="244" edges="5i 1i 2o"/>
    <route id="245" edges="6i 7o"/>
    <route id="246" edges="5i 1i 2o"/>
    <route id="247" edges="3i 4o"/>
    <route id="248" edges="4i 3o"/>
    <route id="249" edges="7i 6o"/>
    <route id="250" edges="6i 7o"/>
    <route id="251" edges="7i 6o"/>
    <route id="252" edges="4i 3o"/>
    <route id="253" edges="5i 1i 2o"/>
    <route id="254" edges="5i 1i 2o"/>
    <route id="255" edges="7i 6o"/>
    <route id="256" edges="7i 6o"/>
    <route id="257" edges="7i 6o"/>
    <route id="258" edges="7i 6o"/>
    <route id="259" edges="6i 7o"/>
    <route id="260" edges="6i 7o"/>
    <route id="261" edges="6i 7o"/>
    <route id="262" edges="2i 1o 5o"/>
    <route id="263" edges="3i 4o"/>
    <route id="264" edges="7i 6o"/>
    <route id="265" edges="3i 4o"/>
    <route id="266" edges="2i 1o 5o"/>
    <route id="267" edges="3i 4o"/>
    <route id="268" edges="7i 6o"/>
    <route id="269" edges="5i 1i 2o"/>
    <route id="270" edges="7i 6o"/>
    <route id="271" edges="7i 6o"/>
    <route id="272" edges="3i 4o"/>
    <route id="273" edges="7i 6o"/>
    <route id="274" edges="3i 4o"/>
    <route id="275" edges="3i 4o"/>
    <route id="276" edges="5i 1i 2o"/>
    <route id="277" edges="7i 6o"/>
    <route id="278" edges="5i 1i 2o"/>
    <route id="279" edges="7i 6o"/>
    <route id="280" edges="2i 1o 5o"/>
    <route id="281" edges="6i 7o"/>
    <route id="282" edges="4i 3o"/>
    <route id="283" edges="7i 6o"/>
    <route id="284" edges="5i 1i 2o"/>
    <route id="285" edges="6i 7o"/>
    <route id="286" edges="5i 1i 2o"/>
    <route id="287" edges="2i 1o 5o"/>
    <route id="288" edges="5i 1i 2o"/>
    <route id="289" edges="3i 4o"/>
    <route id="290" edges="4i 3o"/>
    <route id="291" edges="2i 1o 5o"/>
    <route id="292" edges="6i 7o"/>
    <route id="293" edges="4i 3o"/>
    <route id="294" edges="6i 7o"/>
    <route id="295" edges="3i 4o"/>
    <route id="296" edges="6i 7o"/>
    <route id="297" edges="6i 7o"/>
    <route id="298" edges="2i 1o 5o"/>
    <route id="299" edges="5i 1i 2o"/>
    <route id="300" edges="3i 4o"/>
    <route id="301" edges="7i 6o"/>
    <route id="302" edges="3i 4o"/>
    <route id="303" edges="4i 3o"/>
    <route id="304" edges="5i 1i 2o"/>
    <route id="305" edges="2i 1o 5o"/>
    <route id="306" edges="3i 4o"/>
    <route id="307" edges="2i 1o 5o"/>
    <route id="308" edges="2i 1o 5o"/>
    <route id="309" edges="6i 7o"/>
    <route id="310" edges="7i 6o"/>
    <route id="311" edges="6i 7o"/>
    <route id="312" edges="7i 6o"/>
    <route id="313" edges="6i 7o"/>
    <route id="314" edges="2i 1o 5o"/>
    <route id="315" edges="5i 1i 2o"/>
    <route id="316" edges="6i 7o"/>
    <route id="317" edges="5i 1i 2o"/>
    <route id="318" edges="7i 6o"/>
    <route id="319" edges="7i 6o"/>
    <route id="320" edges="4i 3o"/>
    <route id="321" edges="3i 4o"/>
    <route id="322" edges="7i 6o"/>
    <route id="323" edges="3i 4o"/>
    <route id="324" edges="7i 6o"/>
    <route id="325" edges="5i 1i 2o"/>
    <route id="326" edges="3i 4o"/>
    <route id="327" edges="3i 4o"/>
    <route id="328" edges="6i 7o"/>
    <route id="329" edges="4i 3o"/>
    <route id="330" edges="3i 4o"/>
    <route id="331" edges="2i 1o 5o"/>
    <route id="332" edges="7i 6o"/>
    <route id="333" edges="5i 1i 2o"/>
    <route id="334" edges="7i 6o"/>
    <route id="335" edges="6i 7o"/>
    <route id="336" edges="6i 7o"/>
    <route id="337" edges="4i 3o"/>
    <route id="338" edges="6i 7o"/>
    <route id="339" edges="2i 1o 5o"/>
    <route id="340" edges="4i 3o"/>
    <route id="341" edges="2i 1o 5o"/>
    <route id="342" edges="4i 3o"/>
    <route id="343" edges="3i 4o"/>
    <route id="344" edges="3i 4o"/>
    <route id="345" edges="2i 1o 5o"/>
    <route id="346" edges="6i 7o"/>
    <route id="347" edges="2i 1o 5o"/>
    <route id="348" edges="6i 7o"/>
    <route id="349" edges="3i 4o"/>
    <route id="350" edges="4i 3o"/>
    <route id="351" edges="3i 4o"/>
    <route id="352" edges="6i 7o"/>
    <route id="353" edges="7i 6o"/>
    <route id="354" edges="2i 1o 5o"/>
    <route id="355" edges="7i 6o"/>
    <route id="356" edges="4i 3o"/>
    <route id="357" edges="7i 6o"/>
    <route id="358" edges="4i 3o"/>
    <route id="359" edges="6i 7o"/>
    <route id="360" edges="6i 7o"/>
    <route id="361" edges="6i 7o"/>
    <route id="362" edges="6i 7o"/>
    <route id="363" edges="7i 6o"/>
    <route id="364" edges="3i 4o"/>
    <route id="365" edges="6i 7o"/>
    <route id="366" edges="7i 6o"/>
    <route id="367" edges="4i 3o"/>
    <route id="368" edges="4i 3o"/>
    <route id="369" edges="4i 3o"/>
    <route id="370" edges="4i 3o"/>
    <route id="371" edges="6i 7o"/>
    <route id="372" edges="2i 1o 5o"/>
    <route id="373" edges="2i 1o 5o"/>
    <route id="374" edges="5i 1i 2o"/>
    <route id="375" edges="6i 7o"/>

    <vehicle id="1_3" route="1" depart="3" />
    <vehicle id="2_4" route="2" depart="4" />
    <vehicle id="3_7" route="3" depart="7" />
    <vehicle id="4_21" route="4" depart="21" />
    <vehicle id="5_28" route="5" depart="28" />
    <vehicle id="6_32" route="6" depart="32" />
    <vehicle id="7_41" route="7" depart="41" />
    <vehicle id="8_42" route="8" depart="42" />
    <vehicle id="9_43" route="9" depart="43" />
    <vehicle id="10_62" route="10" depart="62" />
    <vehicle id="11_84" route="11" depart="84" />
    <vehicle id="12_88" route="12" depart="88" />
    <vehicle id="13_91" route="13" depart="91" />
    <vehicle id="14_116" route="14" depart="116" />
    <vehicle id="15_119" route="15" depart="119" />
    <vehicle id="16_124" route="16" depart="124" />
    <vehicle id="17_130" route="17" depart="130" />
    <vehicle id="18_135" route="18" depart="135" />
    <vehicle id="19_154" route="19" depart="154" />
    <vehicle id="20_165" route="20" depart="165" />
    <vehicle id="21_171" route="21" depart="171" />
    <vehicle id="22_177" route="22" depart="177" />
    <vehicle id="23_198" route="23" depart="198" />
    <vehicle id="24_199" route="24" depart="199" />
    <vehicle id="25_211" route="25" depart="211" />
    <vehicle id="26_214" route="26" depart="214" />
    <vehicle id="27_228" route="27" depart="228" />
    <vehicle id="28_230" route="28" depart="230" />
    <vehicle id="29_233" route="29" depart="233" />
    <vehicle id="30_234" route="30" depart="234" />
    <vehicle id="31_235" route="31" depart="235" />
    <vehicle id="32_236" route="32" depart="236" />
    <vehicle id="33_237" route="33" depart="237" />
    <vehicle id="34_252" route="34" depart="252" />
    <vehicle id="35_253" route="35" depart="253" />
    <vehicle id="36_258" route="36" depart="258" />
    <vehicle id="37_262" route="37" depart="262" />
    <vehicle id="38_268" route="38" depart="268" />
    <vehicle id="39_271" route="39" depart="271" />
    <vehicle id="40_272" route="40" depart="272" />
    <vehicle id="41_274" route="41" depart="274" />
    <vehicle id="42_286" route="42" depart="286" />
    <vehicle id="43_293" route="43" depart="293" />
    <vehicle id="44_304" route="44" depart="304" />
    <vehicle id="45_316" route="45" depart="316" />
    <vehicle id="46_320" route="46" depart="320" />
    <vehicle id="47_327" route="47" depart="327" />
    <vehicle id="48_334" route="48" depart="334" />
    <vehicle id="49_338" route="49" depart="338" />
    <vehicle id="50_340" route="50" depart="340" />
    <vehicle id="51_345" route="51" depart="345" />
    <vehicle id="52_369" route="52" depart="369" />
    <vehicle id="53_384" route="53" depart="384" />
    <vehicle id="54_398" route="54" depart="398" />
    <vehicle id="55_423" route="55" depart="423" />
    <vehicle id="56_425" route="56" depart="425" />
    <vehicle id="57_434" route="57" depart="434" />
    <vehicle id="58_445" route="58" depart="445" />
    <vehicle id="59_454" route="59" depart="454" />
    <vehicle id="60_462" route="60" depart="462" />
    <vehicle id="61_466" route="61" depart="466" />
    <vehicle id="62_482" route="62" depart="482" />
    <vehicle id="63_484" route="63" depart="484" />
    <vehicle id="64_491" route="64" depart="491" />
    <vehicle id="65_499" route="65" depart="499" />
    <vehicle id="66_506" route="66" depart="506" />
    <vehicle id="67_520" route="67" depart="520" />
    <vehicle id="68_529" route="68" depart="529" />
    <vehicle id="69_530" route="69" depart="530" />
    <vehicle id="70_540" route="70" depart="540" />
    <vehicle id="71_567" route="71" depart="567" />
    <vehicle id="72_581" route="72" depart="581" />
    <vehicle id="73_588" route="73" depart="588" />
    <vehicle id="74_593" route="74" depart="593" />
    <vehicle id="75_611" route="75" depart="611" />
    <vehicle id="76_616" route="76" depart="616" />
    <vehicle id="77_622" route="77" depart="622" />
    <vehicle id="78_623" route="78" depart="623" />
    <vehicle id="79_645" route="79" depart="645" />
    <vehicle id="80_650" route="80" depart="650" />
    <vehicle id="81_674" route="81" depart="674" />
    <vehicle id="82_680" route="82" depart="680" />
    <vehicle id="83_688" route="83" depart="688" />
    <vehicle id="84_710" route="84" depart="710" />
    <vehicle id="85_724" route="85" depart="724" />
    <vehicle id="86_735" route="86" depart="735" />
    <vehicle id="87_742" route="87" depart="742" />
    <vehicle id="88_753" route="88" depart="753" />
    <vehicle id="89_756" route="89" depart="756" />
    <vehicle id="90_771" route="90" depart="771" />
    <vehicle id="91_806" route="91" depart="806" />
    <vehicle id="92_816" route="92" depart="816" />
    <vehicle id="93_827" route="93" depart="827" />
    <vehicle id="94_840" route="94" depart="840" />
    <vehicle id="95_859" route="95" depart="859" />
    <vehicle id="96_868" route="96" depart="868" />
    <vehicle id="97_876" route="97" depart="876" />
    <vehicle id="98_886" route="98" depart="886" />
    <vehicle id="99_919" route="99" depart="919" />
    <vehicle id="100_939" route="100" depart="939" />
    <vehicle id="101_943" route="101" depart="943" />
    <vehicle id="102_954" route="102" depart="954" />
    <vehicle id="103_957" route="103" depart="957" />
    <vehicle id="104_984" route="104" depart="984" />
    <vehicle id="105_997" route="105" depart="997" />
    <vehicle id="106_999" route="106" depart="999" />
    <vehicle id="107_1002" route="107" depart="1002" />
    <vehicle id="108_1009" route="108" depart="1009" />
    <vehicle id="109_1019" route="109" depart="1019" />
    <vehicle id="110_1023" route="110" depart="1023" />
    <vehicle id="111_1035" route="111" depart="1035" />
    <vehicle id="112_1040" route="112" depart="1040" />
    <vehicle id="113_1050" route="113" depart="1050" />
    <vehicle id="114_1070" route="114" depart="1070" />
    <vehicle id="115_1071" route="115" depart="1071" />
    <vehicle id="116_1074" route="116" depart="1074" />
    <vehicle id="117_1088" route="117" depart="1088" />
    <vehicle id="118_1121" route="118" depart="1121" />
    <vehicle id="119_1122" route="119" depart="1122" />
    <vehicle id="120_1128" route="120" depart="1128" />
    <vehicle id="121_1137" route="121" depart="1137" />
    <vehicle id="122_1150" route="122" depart="1150" />
    <vehicle id="123_1152" route="123" depart="1152" />
    <vehicle id="124_1159" route="124" depart="1159" />
    <vehicle id="125_1164" route="125" depart="1164" />
    <vehicle id="126_1168" route="126" depart="1168" />
    <vehicle id="127_1173" route="127" depart="1173" />
    <vehicle id="128_1195" route="128" depart="1195" />
    <vehicle id="129_1221" route="129" depart="1221" />
    <vehicle id="130_1229" route="130" depart="1229" />
    <vehicle id="131_1239" route="131" depart="1239" />
    <vehicle id="132_1241" route="132" depart="1241" />
    <vehicle id="133_1248" route="133" depart="1248" />
    <vehicle id="134_1260" route="134" depart="1260" />
    <vehicle id="135_1271" route="135" depart="1271" />
    <vehicle id="136_1272" route="136" depart="1272" />
    <vehicle id="137_1278" route="137" depart="1278" />
    <vehicle id="138_1292" route="138" depart="1292" />
    <vehicle id="139_1308" route="139" depart="1308" />
    <vehicle id="140_1319" route="140" depart="1319" />
    <vehicle id="141_1320" route="141" depart="1320" />
    <vehicle id="142_1325" route="142" depart="1325" />
    <vehicle id="143_1341" route="143" depart="1341" />
    <vehicle id="144_1348" route="144" depart="1348" />
    <vehicle id="145_1360" route="145" depart="1360" />
    <vehicle id="146_1366" route="146" depart="1366" />
    <vehicle id="147_1373" route="147" depart="1373" />
    <vehicle id="148_1381" route="148" depart="1381" />
    <vehicle id="149_1382" route="149" depart="1382" />
    <vehicle id="150_1404" route="150" depart="1404" />
    <vehicle id="151_1408" route="151" depart="1408" />
    <vehicle id="152_1410" route="152" depart="1410" />
    <vehicle id="153_1429" route="153" depart="1429" />
    <vehicle id="154_1435" route="154" depart="1435" />
    <vehicle id="155_1441" route="155" depart="1441" />
    <vehicle id="156_1443" route="156" depart="1443" />
    <vehicle id="157_1456" route="157" depart="1456" />
    <vehicle id="158_1464" route="158" depart="1464" />
    <vehicle id="159_1473" route="159" depart="1473" />
    <vehicle id="160_1480" route="160" depart="1480" />
    <vehicle id="161_1494" route="161" depart="1494" />
    <vehicle id="162_1520" route="162" depart="1520" />
    <vehicle id="163_1537" route="163" depart="1537" />
    <vehicle id="164_1541" route="164" depart="1541" />
    <vehicle id="165_1542" route="165" depart="1542" />
    <vehicle id="166_1559" route="166" depart="1559" />
    <vehicle id="167_1563" route="167" depart="1563" />
    <vehicle id="168_1566" route="168" depart="1566" />
    <vehicle id="169_1575" route="169" depart="1575" />
    <vehicle id="170_1583" route="170" depart="1583" />
    <vehicle id="171_1584" route="171" depart="1584" />
    <vehicle id="172_1596" route="172" depart="1596" />
    <vehicle id="173_1608" route="173" depart="1608" />
    <vehicle id="174_1609" route="174" depart="1609" />
    <vehicle id="175_1610" route="175" depart="1610" />
    <vehicle id="176_1612" route="176" depart="1612" />
    <vehicle id="177_1622" route="177" depart="1622" />
    <vehicle id="178_1629" route="178" depart="1629" />
    <vehicle id="179_1650" route="179" depart="1650" />
    <vehicle id="180_1659" route="180" depart="1659" />
    <vehicle id="181_1665" route="181" depart="1665" />
    <vehicle id="182_1677" route="182" depart="1677" />
    <vehicle id="183_1680" route="183" depart="1680" />
    <vehicle id="184_1688" route="184" depart="1688" />
    <vehicle id="185_1702" route="185" depart="1702" />
    <vehicle id="186_1707" route="186" depart="1707" />
    <vehicle id="187_1719" route="187" depart="1719" />
    <vehicle id="188_1721" route="188" depart="1721" />
    <vehicle id="189_1729" route="189" depart="1729" />
    <vehicle id="190_1735" route="190" depart="1735" />
    <vehicle id="191_1740" route="191" depart="1740" />
    <vehicle id="192_1742" route="192" depart="1742" />
    <vehicle id="193_1751" route="193" depart="1751" />
    <vehicle id="194_1760" route="194" depart="1760" />
    <vehicle id="195_1767" route="195" depart="1767" />
    <vehicle id="196_1770" route="196" depart="1770" />
    <vehicle id="197_1773" route="197" depart="1773" />
    <vehicle id="198_1796" route="198" depart="1796" />
    <vehicle id="199_1799" route="199" depart="1799" />
    <vehicle id="200_1806" route="200" depart="1806" />
    <vehicle id="201_1808" route="201" depart="1808" />
    <vehicle id="202_1817" route="202" depart="1817" />
    <vehicle id="203_1828" route="203" depart="1828" />
    <vehicle id="204_1833" route="204" depart="1833" />
    <vehicle id="205_1834" route="205" depart="1834" />
    <vehicle id="206_1837" route="206" depart="1837" />
    <vehicle id="207_1838" route="207" depart="1838" />
    <vehicle id="208_1846" route="208" depart="1846" />
    <vehicle id="209_1880" route="209" depart="1880" />
    <vehicle id="210_1916" route="210" depart="1916" />
    <vehicle id="211_1918" route="211" depart="1918" />
    <vehicle id="212_1933" route="212" depart="1933" />
    <vehicle id="213_1941" route="213" depart="1941" />
    <vehicle id="214_1977" route="214" depart="1977" />
    <vehicle id="215_1980" route="215" depart="1980" />
    <vehicle id="216_1995" route="216" depart="1995" />
    <vehicle id="217_1997" route="217" depart="1997" />
    <vehicle id="218_2030" route="218" depart="2030" />
    <vehicle id="219_2031" route="219" depart="2031" />
    <vehicle id="220_2054" route="220" depart="2054" />
    <vehicle id="221_2075" route="221" depart="2075" />
    <vehicle id="222_2085" route="222" depart="2085" />
    <vehicle id="223_2088" route="223" depart="2088" />
    <vehicle id="224_2096" route="224" depart="2096" />
    <vehicle id="225_2102" route="225" depart="2102" />
    <vehicle id="226_2104" route="226" depart="2104" />
    <vehicle id="227_2114" route="227" depart="2114" />
    <vehicle id="228_2129" route="228" depart="2129" />
    <vehicle id="229_2135" route="229" depart="2135" />
    <vehicle id="230_2147" route="230" depart="2147" />
    <vehicle id="231_2148" route="231" depart="2148" />
    <vehicle id="232_2151" route="232" depart="2151" />
    <vehicle id="233_2158" route="233" depart="2158" />
    <vehicle id="234_2159" route="234" depart="2159" />
    <vehicle id="235_2166" route="235" depart="2166" />
    <vehicle id="236_2167" route="236" depart="2167" />
    <vehicle id="237_2171" route="237" depart="2171" />
    <vehicle id="238_2174" route="238" depart="2174" />
    <vehicle id="239_2202" route="239" depart="2202" />
    <vehicle id="240_2208" route="240" depart="2208" />
    <vehicle id="241_2209" route="241" depart="2209" />
    <vehicle id="242_2215" route="242" depart="2215" />
    <vehicle id="243_2253" route="243" depart="2253" />
    <vehicle id="244_2262" route="244" depart="2262" />
    <vehicle id="245_2263" route="245" depart="2263" />
    <vehicle id="246_2288" route="246" depart="2288" />
    <vehicle id="247_2291" route="247" depart="2291" />
    <vehicle id="248_2310" route="248" depart="2310" />
    <vehicle id="249_2315" route="249" depart="2315" />
    <vehicle id="250_2322" route="250" depart="2322" />
    <vehicle id="251_2339" route="251" depart="2339" />
    <vehicle id="252_2348" route="252" depart="2348" />
    <vehicle id="253_2364" route="253" depart="2364" />
    <vehicle id="254_2387" route="254" depart="2387" />
    <vehicle id="255_2388" route="255" depart="2388" />
    <vehicle id="256_2400" route="256" depart="2400" />
    <vehicle id="257_2403" route="257" depart="2403" />
    <vehicle id="258_2418" route="258" depart="2418" />
    <vehicle id="259_2431" route="259" depart="2431" />
    <vehicle id="260_2450" route="260" depart="2450" />
    <vehicle id="261_2451" route="261" depart="2451" />
    <vehicle id="262_2461" route="262" depart="2461" />
    <vehicle id="263_2471" route="263" depart="2471" />
    <vehicle id="264_2478" route="264" depart="2478" />
    <vehicle id="265_2497" route="265" depart="2497" />
    <vehicle id="266_2518" route="266" depart="2518" />
    <vehicle id="267_2523" route="267" depart="2523" />
    <vehicle id="268_2535" route="268" depart="2535" />
    <vehicle id="269_2536" route="269" depart="2536" />
    <vehicle id="270_2579" route="270" depart="2579" />
    <vehicle id="271_2611" route="271" depart="2611" />
    <vehicle id="272_2622" route="272" depart="2622" />
    <vehicle id="273_2625" route="273" depart="2625" />
    <vehicle id="274_2629" route="274" depart="2629" />
    <vehicle id="275_2631" route="275" depart="2631" />
    <vehicle id="276_2644" route="276" depart="2644" />
    <vehicle id="277_2646" route="277" depart="2646" />
    <vehicle id="278_2662" route="278" depart="2662" />
    <vehicle id="279_2670" route="279" depart="2670" />
    <vehicle id="280_2675" route="280" depart="2675" />
    <vehicle id="281_2680" route="281" depart="2680" />
    <vehicle id="282_2690" route="282" depart="2690" />
    <vehicle id="283_2696" route="283" depart="2696" />
    <vehicle id="284_2698" route="284" depart="2698" />
    <vehicle id="285_2706" route="285" depart="2706" />
    <vehicle id="286_2709" route="286" depart="2709" />
    <vehicle id="287_2744" route="287" depart="2744" />
    <vehicle id="288_2748" route="288" depart="2748" />
    <vehicle id="289_2755" route="289" depart="2755" />
    <vehicle id="290_2764" route="290" depart="2764" />
    <vehicle id="291_2777" route="291" depart="2777" />
    <vehicle id="292_2778" route="292" depart="2778" />
    <vehicle id="293_2784" route="293" depart="2784" />
    <vehicle id="294_2787" route="294" depart="2787" />
    <vehicle id="295_2800" route="295" depart="2800" />
    <vehicle id="296_2814" route="296" depart="2814" />
    <vehicle id="297_2837" route="297" depart="2837" />