<routes>

    <route id="1" edges="4i 3o"/>
    <route id="2" edges="2i 1o 5o"/>
    <route id="3" edges="5i 1i 2o"/>
    <route id="4" edges="3i 4o"/>
    <route id="5" edges="4i 3o"/>
    <route id="6" edges="6i 7o"/>
    <route id="7" edges="6i 7o"/>
    <route id="8" edges="3i 4o"/>
    <route id="9" edges="7i 6o"/>
    <route id="10" edges="6i 7o"/>
    <route id="11" edges="5i 1i 2o"/>
    <route id="12" edges="5i 1i 2o"/>
    <route id="13" edges="2i 1o 5o"/>
    <route id="14" edges="2i 1o 5o"/>
    <route id="15" edges="7i 6o"/>
    <route id="16" edges="5i 1i 2o"/>
    <route id="17" edges="3i 4o"/>
    <route id="18" edges="6i 7o"/>
    <route id="19" edges="4i 3o"/>
    <route id="20" edges="2i 1o 5o"/>
    <route id="21" edges="3i 4o"/>
    <route id="22" edges="7i 6o"/>
    <route id="23" edges="7i 6o"/>
    <route id="24" edges="4i 3o"/>
    <route id="25" edges="7i 6o"/>
    <route id="26" edges="4i 3o"/>
    <route id="27" edges="4i 3o"/>
    <route id="28" edges="6i 7o"/>
    <route id="29" edges="2i 1o 5o"/>
    <route id="30" edges="5i 1i 2o"/>
    <route id="31" edges="4i 3o"/>
    <route id="32" edges="6i 7o"/>
    <route id="33" edges="4i 3o"/>
    <route id="34" edges="6i 7o"/>
    <route id="35" edges="6i 7o"/>
    <route id="36" edges="6i 7o"/>
    <route id="37" edges="6i 7o"/>
    <route id="38" edges="7i 6o"/>
    <route id="39" edges="7i 6o"/>
    <route id="40" edges="3i 4o"/>
    <route id="41" edges="2i 1o 5o"/>
    <route id="42" edges="3i 4o"/>
    <route id="43" edges="3i 4o"/>
    <route id="44" edges="7i 6o"/>
    <route id="45" edges="5i 1i 2o"/>
    <route id="46" edges="5i 1i 2o"/>
    <route id="47" edges="5i 1i 2o"/>
    <route id="48" edges="4i 3o"/>
    <route id="49" edges="2i 1o 5o"/>
    <route id="50" edges="4i 3o"/>
    <route id="51" edges="3i 4o"/>
    <route id="52" edges="5i 1i 2o"/>
    <route id="53" edges="4i 3o"/>
    <route id="54" edges="6i 7o"/>
    <route id="55" edges="6i 7o"/>
    <route id="56" edges="6i 7o"/>
    <route id="57" edges="2i 1o 5o"/>
    <route id="58" edges="4i 3o"/>
    <route id="59" edges="5i 1i 2o"/>
    <route id="60" edges="2i 1o 5o"/>
    <route id="61" edges="2i 1o 5o"/>
    <route id="62" edges="3i 4o"/>
    <route id="63" edges="6i 7o"/>
    <route id="64" edges="5i 1i 2o"/>
    <route id="65" edges="6i 7o"/>
    <route id="66" edges="6i 7o"/>
    <route id="67" edges="6i 7o"/>
    <route id="68" edges="7i 6o"/>
    <route id="69" edges="3i 4o"/>
    <route id="70" edges="3i 4o"/>
    <route id="71" edges="7i 6o"/>
    <route id="72" edges="2i 1o 5o"/>
    <route id="73" edges="3i 4o"/>
    <route id="74" edges="2i 1o 5o"/>
    <route id="75" edges="3i 4o"/>
    <route id="76" edges="2i 1o 5o"/>
    <route id="77" edges="2i 1o 5o"/>
    <route id="78" edges="3i 4o"/>
    <route id="79" edges="7i 6o"/>
    <route id="80" edges="3i 4o"/>
    <route id="81" edges="7i 6o"/>
    <route id="82" edges="3i 4o"/>
    <route id="83" edges="3i 4o"/>
    <route id="84" edges="4i 3o"/>
    <route id="85" edges="3i 4o"/>
    <route id="86" edges="2i 1o 5o"/>
    <route id="87" edges="2i 1o 5o"/>
    <route id="88" edges="7i 6o"/>
    <route id="89" edges="7i 6o"/>
    <route id="90" edges="5i 1i 2o"/>
    <route id="91" edges="7i 6o"/>
    <route id="92" edges="3i 4o"/>
    <route id="93" edges="2i 1o 5o"/>
    <route id="94" edges="5i 1i 2o"/>
    <route id="95" edges="4i 3o"/>
    <route id="96" edges="3i 4o"/>
    <route id="97" edges="4i 3o"/>
    <route id="98" edges="7i 6o"/>
    <route id="99" edges="5i 1i 2o"/>
    <route id="100" edges="4i 3o"/>
    <route id="101" edges="5i 1i 2o"/>
    <route id="102" edges="6i 7o"/>
    <route id="103" edges="3i 4o"/>
    <route id="104" edges="4i 3o"/>
    <route id="105" edges="3i 4o"/>
    <route id="106" edges="5i 1i 2o"/>
    <route id="107" edges="2i 1o 5o"/>
    <route id="108" edges="4i 3o"/>
    <route id="109" edges="7i 6o"/>
    <route id="110" edges="2i 1o 5o"/>
    <route id="111" edges="3i 4o"/>
    <route id="112" edges="2i 1o 5o"/>
    <route id="113" edges="2i 1o 5o"/>
    <route id="114" edges="6i 7o"/>
    <route id="115" edges="2i 1o 5o"/>
    <route id="116" edges="3i 4o"/>
    <route id="117" edges="6i 7o"/>
    <route id="118" edges="6i 7o"/>
    <route id="119" edges="4i 3o"/>
    <route id="120" edges="3i 4o"/>
    <route id="121" edges="4i 3o"/>
    <route id="122" edges="5i 1i 2o"/>
    <route id="123" edges="7i 6o"/>
    <route id="124" edges="4i 3o"/>
    <route id="125" edges="7i 6o"/>
    <route id="126" edges="6i 7o"/>
    <route id="127" edges="5i 1i 2o"/>
    <route id="128" edges="7i 6o"/>
    <route id="129" edges="5i 1i 2o"/>
    <route id="130" edges="5i 1i 2o"/>
    <route id="131" edges="3i 4o"/>
    <route id="132" edges="4i 3o"/>
    <route id="133" edges="6i 7o"/>
    <route id="134" edges="3i 4o"/>
    <route id="135" edges="3i 4o"/>
    <route id="136" edges="2i 1o 5o"/>
    <route id="137" edges="3i 4o"/>
    <route id="138" edges="6i 7o"/>
    <route id="139" edges="6i 7o"/>
    <route id="140" edges="6i 7o"/>
    <route id="141" edges="4i 3o"/>
    <route id="142" edges="2i 1o 5o"/>
    <route id="143" edges="5i 1i 2o"/>
    <route id="144" edges="2i 1o 5o"/>
    <route id="145" edges="3i 4o"/>
    <route id="146" edges="2i 1o 5o"/>
    <route id="147" edges="2i 1o 5o"/>
    <route id="148" edges="2i 1o 5o"/>
    <route id="149" edges="6i 7o"/>
    <route id="150" edges="4i 3o"/>
    <route id="151" edges="5i 1i 2o"/>
    <route id="152" edges="2i 1o 5o"/>
    <route id="153" edges="4i 3o"/>
    <route id="154" edges="4i 3o"/>
    <route id="155" edges="6i 7o"/>
    <route id="156" edges="4i 3o"/>
    <route id="157" edges="4i 3o"/>
    <route id="158" edges="7i 6o"/>
    <route id="159" edges="3i 4o"/>
    <route id="160" edges="7i 6o"/>
    <route id="161" edges="7i 6o"/>
    <route id="162" edges="7i 6o"/>
    <route id="163" edges="7i 6o"/>
    <route id="164" edges="2i 1o 5o"/>
    <route id="165" edges="3i 4o"/>
    <route id="166" edges="3i 4o"/>
    <route id="167" edges="5i 1i 2o"/>
    <route id="168" edges="6i 7o"/>
    <route id="169" edges="5i 1i 2o"/>
    <route id="170" edges="2i 1o 5o"/>
    <route id="171" edges="4i 3o"/>
    <route id="172" edges="6i 7o"/>
    <route id="173" edges="5i 1i 2o"/>
    <route id="174" edges="4i 3o"/>
    <route id="175" edges="5i 1i 2o"/>
    <route id="176" edges="4i 3o"/>
    <route id="177" edges="5i 1i 2o"/>
    <route id="178" edges="6i 7o"/>
    <route id="179" edges="4i 3o"/>
    <route id="180" edges="5i 1i 2o"/>
    <route id="181" edges="4i 3o"/>
    <route id="182" edges="4i 3o"/>
    <route id="183" edges="2i 1o 5o"/>
    <route id="184" edges="5i 1i 2o"/>
    <route id="185" edges="5i 1i 2o"/>
    <route id="186" edges="2i 1o 5o"/>
    <route id="187" edges="2i 1o 5o"/>
    <route id="188" edges="5i 1i 2o"/>
    <route id="189" edges="6i 7o"/>
    <route id="190" edges="7i 6o"/>
    <route id="191" edges="2i 1o 5o"/>
    <route id="192" edges="6i 7o"/>
    <route id="193" edges="5i 1i 2o"/>
    <route id="194" edges="6i 7o"/>
    <route id="195" edges="5i 1i 2o"/>
    <route id="196" edges="5i 1i 2o"/>
    <route id="197" edges="4i 3o"/>
    <route id="198" edges="3i 4o"/>
    <route id="199" edges="6i 7o"/>
    <route id="200" edges="6i 7o"/>
    <route id="201" edges="2i 1o 5o"/>
    <route id="202" edges="4i 3o"/>
    <route id="203" edges="7i 6o"/>
    <route id="204" edges="2i 1o 5o"/>
    <route id="205" edges="5i 1i 2o"/>
    <route id="206" edges="3i 4o"/>
    <route id="207" edges="6i 7o"/>
    <route id="208" edges="2i 1o 5o"/>
    <route id="209" edges="2i 1o 5o"/>
    <route id="210" edges="6i 7o"/>
    <route id="211" edges="4i 3o"/>
    <route id="212" edges="7i 6o"/>
    <route id="213" edges="3i 4o"/>
    <route id="214" edges="6i 7o"/>
    <route id="215" edges="7i 6o"/>
    <route id="216" edges="2i 1o 5o"/>
    <route id="217" edges="5i 1i 2o"/>
    <route id="218" edges="5i 1i 2o"/>
    <route id="219" edges="6i 7o"/>
    <route id="220" edges="4i 3o"/>
    <route id="221" edges="5i 1i 2o"/>
    <route id="222" edges="7i 6o"/>
    <route id="223" edges="5i 1i 2o"/>
    <route id="224" edges="4i 3o"/>
    <route id="225" edges="5i 1i 2o"/>
    <route id="226" edges="6i 7o"/>
    <route id="227" edges="4i 3o"/>
    <route id="228" edges="7i 6o"/>
    <route id="229" edges="6i 7o"/>
    <route id="230" edges="3i 4o"/>
    <route id="231" edges="5i 1i 2o"/>
    <route id="232" edges="3i 4o"/>
    <route id="233" edges="5i 1i 2o"/>
    <route id="234" edges="6i 7o"/>
    <route id="235" edges="7i 6o"/>
    <route id="236" edges="7i 6o"/>
    <route id="237" edges="5i 1i 2o"/>
    <route id="238" edges="3i 4o"/>
    <route id="239" edges="3i 4o"/>
    <route id="240" edges="6i 7o"/>
    <route id="241" edges="6i 7o"/>
    <route id="242" edges="2i 1o 5o"/>
    <route id="243" edges="7i 6o"/>
    <route id="244" edges="5i 1i 2o"/>
    <route id="245" edges="4i 3o"/>
    <route id="246" edges="3i 4o"/>
    <route id="247" edges="7i 6o"/>
    <route id="248" edges="3i 4o"/>
    <route id="249" edges="7i 6o"/>
    <route id="250" edges="2i 1o 5o"/>
    <route id="251" edges="5i 1i 2o"/>
    <route id="252" edges="2i 1o 5o"/>
    <route id="253" edges="3i 4o"/>
    <route id="254" edges="4i 3o"/>
    <route id="255" edges="6i 7o"/>
    <route id="256" edges="2i 1o 5o"/>
    <route id="257" edges="2i 1o 5o"/>
    <route id="258" edges="7i 6o"/>
    <route id="259" edges="6i 7o"/>
    <route id="260" edges="3i 4o"/>
    <route id="261" edges="3i 4o"/>
    <route id="262" edges="4i 3o"/>
    <route id="263" edges="3i 4o"/>
    <route id="264" edges="5i 1i 2o"/>
    <route id="265" edges="2i 1o 5o"/>
    <route id="266" edges="4i 3o"/>
    <route id="267" edges="3i 4o"/>
    <route id="268" edges="7i 6o"/>
    <route id="269" edges="7i 6o"/>
    <route id="270" edges="4i 3o"/>
    <route id="271" edges="6i 7o"/>
    <route id="272" edges="7i 6o"/>
    <route id="273" edges="5i 1i 2o"/>
    <route id="274" edges="3i 4o"/>
    <route id="275" edges="3i 4o"/>
    <route id="276" edges="5i 1i 2o"/>
    <route id="277" edges="5i 1i 2o"/>
    <route id="278" edges="5i 1i 2o"/>
    <route id="279" edges="4i 3o"/>
    <route id="280" edges="6i 7o"/>
    <route id="281" edges="4i 3o"/>
    <route id="282" edges="5i 1i 2o"/>
    <route id="283" edges="3i 4o"/>
    <route id="284" edges="7i 6o"/>
    <route id="285" edges="5i 1i 2o"/>
    <route id="286" edges="3i 4o"/>
    <route id="287" edges="4i 3o"/>
    <route id="288" edges="4i 3o"/>
    <route id="289" edges="4i 3o"/>
    <route id="290" edges="4i 3o"/>
    <route id="291" edges="5i 1i 2o"/>
    <route id="292" edges="3i 4o"/>
    <route id="293" edges="6i 7o"/>
    <route id="294" edges="5i 1i 2o"/>
    <route id="295" edges="3i 4o"/>
    <route id="296" edges="5i 1i 2o"/>
    <route id="297" edges="6i 7o"/>
    <route id="298" edges="7i 6o"/>
    <route id="299" edges="2i 1o 5o"/>
    <route id="300" edges="3i 4o"/>
    <route id="301" edges="3i 4o"/>
    <route id="302" edges="6i 7o"/>
    <route id="303" edges="5i 1i 2o"/>
    <route id="304" edges="4i 3o"/>
    <route id="305" edges="6i 7o"/>
    <route id="306" edges="7i 6o"/>
    <route id="307" edges="4i 3o"/>
    <route id="308" edges="2i 1o 5o"/>
    <route id="309" edges="3i 4o"/>
    <route id="310" edges="3i 4o"/>
    <route id="311" edges="5i 1i 2o"/>
    <route id="312" edges="3i 4o"/>
    <route id="313" edges="4i 3o"/>
    <route id="314" edges="3i 4o"/>
    <route id="315" edges="2i 1o 5o"/>
    <route id="316" edges="4i 3o"/>
    <route id="317" edges="2i 1o 5o"/>
    <route id="318" edges="3i 4o"/>
    <route id="319" edges="7i 6o"/>
    <route id="320" edges="6i 7o"/>
    <route id="321" edges="2i 1o 5o"/>
    <route id="322" edges="7i 6o"/>
    <route id="323" edges="5i 1i 2o"/>
    <route id="324" edges="7i 6o"/>
    <route id="325" edges="4i 3o"/>
    <route id="326" edges="3i 4o"/>
    <route id="327" edges="6i 7o"/>
    <route id="328" edges="4i 3o"/>
    <route id="329" edges="5i 1i 2o"/>
    <route id="330" edges="4i 3o"/>
    <route id="331" edges="6i 7o"/>
    <route id="332" edges="5i 1i 2o"/>
    <route id="333" edges="4i 3o"/>
    <route id="334" edges="4i 3o"/>
    <route id="335" edges="3i 4o"/>
    <route id="336" edges="3i 4o"/>
    <route id="337" edges="3i 4o"/>
    <route id="338" edges="4i 3o"/>
    <route id="339" edges="7i 6o"/>
    <route id="340" edges="5i 1i 2o"/>
    <route id="341" edges="6i 7o"/>
    <route id="342" edges="4i 3o"/>
    <route id="343" edges="2i 1o 5o"/>
    <route id="344" edges="2i 1o 5o"/>
    <route id="345" edges="7i 6o"/>
    <route id="346" edges="4i 3o"/>
    <route id="347" edges="7i 6o"/>
    <route id="348" edges="4i 3o"/>
    <route id="349" edges="3i 4o"/>
    <route id="350" edges="2i 1o 5o"/>
    <route id="351" edges="3i 4o"/>
    <route id="352" edges="7i 6o"/>

    <vehicle id="1_0" route="1" depart="0" />
    <vehicle id="2_10" route="2" depart="10" />
    <vehicle id="3_11" route="3" depart="11" />
    <vehicle id="4_17" route="4" depart="17" />
    <vehicle id="5_27" route="5" depart="27" />
    <vehicle id="6_44" route="6" depart="44" />
    <vehicle id="7_67" route="7" depart="67" />
    <vehicle id="8_91" route="8" depart="91" />
    <vehicle id="9_100" route="9" depart="100" />
    <vehicle id="10_108" route="10" depart="108" />
    <vehicle id="11_130" route="11" depart="130" />
    <vehicle id="12_170" route="12" depart="170" />
    <vehicle id="13_171" route="13" depart="171" />
    <vehicle id="14_183" route="14" depart="183" />
    <vehicle id="15_191" route="15" depart="191" />
    <vehicle id="16_198" route="16" depart="198" />
    <vehicle id="17_211" route="17" depart="211" />
    <vehicle id="18_229" route="18" depart="229" />
    <vehicle id="19_230" route="19" depart="230" />
    <vehicle id="20_265" route="20" depart="265" />
    <vehicle id="21_298" route="21" depart="298" />
    <vehicle id="22_306" route="22" depart="306" />
    <vehicle id="23_308" route="23" depart="308" />
    <vehicle id="24_309" route="24" depart="309" />
    <vehicle id="25_323" route="25" depart="323" />
    <vehicle id="26_324" route="26" depart="324" />
    <vehicle id="27_325" route="27" depart="325" />
    <vehicle id="28_372" route="28" depart="372" />
    <vehicle id="29_373" route="29" depart="373" />
    <vehicle id="30_421" route="30" depart="421" />
    <vehicle id="31_429" route="31" depart="429" />
    <vehicle id="32_464" route="32" depart="464" />
    <vehicle id="33_479" route="33" depart="479" />
    <vehicle id="34_497" route="34" depart="497" />
    <vehicle id="35_520" route="35" depart="520" />
    <vehicle id="36_528" route="36" depart="528" />
    <vehicle id="37_529" route="37" depart="529" />
    <vehicle id="38_557" route="38" depart="557" />
    <vehicle id="39_560" route="39" depart="560" />
    <vehicle id="40_567" route="40" depart="567" />
    <vehicle id="41_573" route="41" depart="573" />
    <vehicle id="42_583" route="42" depart="583" />
    <vehicle id="43_584" route="43" depart="584" />
    <vehicle id="44_591" route="44" depart="591" />
    <vehicle id="45_612" route="45" depart="612" />
    <vehicle id="46_617" route="46" depart="617" />
    <vehicle id="47_623" route="47" depart="623" />
    <vehicle id="48_626" route="48" depart="626" />
    <vehicle id="49_650" route="49" depart="650" />
    <vehicle id="50_685" route="50" depart="685" />
    <vehicle id="51_689" route="51" depart="689" />
    <vehicle id="52_694" route="52" depart="694" />
    <vehicle id="53_698" route="53" depart="698" />
    <vehicle id="54_701" route="54" depart="701" />
    <vehicle id="55_703" route="55" depart="703" />
    <vehicle id="56_723" route="56" depart="723" />
    <vehicle id="57_734" route="57" depart="734" />
    <vehicle id="58_739" route="58" depart="739" />
    <vehicle id="59_746" route="59" depart="746" />
    <vehicle id="60_756" route="60" depart="756" />
    <vehicle id="61_770" route="61" depart="770" />
    <vehicle id="62_774" route="62" depart="774" />
    <vehicle id="63_781" route="63" depart="781" />
    <vehicle id="64_822" route="64" depart="822" />
    <vehicle id="65_825" route="65" depart="825" />
    <vehicle id="66_843" route="66" depart="843" />
    <vehicle id="67_852" route="67" depart="852" />
    <vehicle id="68_861" route="68" depart="861" />
    <vehicle id="69_895" route="69" depart="895" />
    <vehicle id="70_896" route="70" depart="896" />
    <vehicle id="71_909" route="71" depart="909" />
    <vehicle id="72_940" route="72" depart="940" />
    <vehicle id="73_955" route="73" depart="955" />
    <vehicle id="74_981" route="74" depart="981" />
    <vehicle id="75_1005" route="75" depart="1005" />
    <vehicle id="76_1016" route="76" depart="1016" />
    <vehicle id="77_1020" route="77" depart="1020" />
    <vehicle id="78_1022" route="78" depart="1022" />
    <vehicle id="79_1035" route="79" depart="1035" />
    <vehicle id="80_1040" route="80" depart="1040" />
    <vehicle id="81_1045" route="81" depart="1045" />
    <vehicle id="82_1053" route="82" depart="1053" />
    <vehicle id="83_1059" route="83" depart="1059" />
    <vehicle id="84_1062" route="84" depart="1062" />
    <vehicle id="85_1065" route="85" depart="1065" />
    <vehicle id="86_1070" route="86" depart="1070" />
    <vehicle id="87_1082" route="87" depart="1082" />
    <vehicle id="88_1093" route="88" depart="1093" />
    <vehicle id="89_1112" route="89" depart="1112" />
    <vehicle id="90_1114" route="90" depart="1114" />
    <vehicle id="91_1121" route="91" depart="1121" />
    <vehicle id="92_1132" route="92" depart="1132" />
    <vehicle id="93_1141" route="93" depart="1141" />
    <vehicle id="94_1164" route="94" depart="1164" />
    <vehicle id="95_1177" route="95" depart="1177" />
    <vehicle id="96_1192" route="96" depart="1192" />
    <vehicle id="97_1193" route="97" depart="1193" />
    <vehicle id="98_1196" route="98" depart="1196" />
    <vehicle id="99_1203" route="99" depart="1203" />
    <vehicle id="100_1208" route="100" depart="1208" />
    <vehicle id="101_1210" route="101" depart="1210" />
    <vehicle id="102_1212" route="102" depart="1212" />
    <vehicle id="103_1254" route="103" depart="1254" />
    <vehicle id="104_1282" route="104" depart="1282" />
    <vehicle id="105_1294" route="105" depart="1294" />
    <vehicle id="106_1296" route="106" depart="1296" />
    <vehicle id="107_1304" route="107" depart="1304" />
    <vehicle id="108_1308" route="108" depart="1308" />
    <vehicle id="109_1314" route="109" depart="1314" />
    <vehicle id="110_1325" route="110" depart="1325" />
    <vehicle id="111_1330" route="111" depart="1330" />
    <vehicle id="112_1338" route="112" depart="1338" />
    <vehicle id="113_1353" route="113" depart="1353" />
    <vehicle id="114_1360" route="114" depart="1360" />
    <vehicle id="115_1365" route="115" depart="1365" />
    <vehicle id="116_1381" route="116" depart="1381" />
    <vehicle id="117_1383" route="117" depart="1383" />
    <vehicle id="118_1396" route="118" depart="1396" />
    <vehicle id="119_1397" route="119" depart="1397" />
    <vehicle id="120_1403" route="120" depart="1403" />
    <vehicle id="121_1406" route="121" depart="1406" />
    <vehicle id="122_1410" route="122" depart="1410" />
    <vehicle id="123_1416" route="123" depart="1416" />
    <vehicle id="124_1423" route="124" depart="1423" />
    <vehicle id="125_1452" route="125" depart="1452" />
    <vehicle id="126_1459" route="126" depart="1459" />
    <vehicle id="127_1473" route="127" depart="1473" />
    <vehicle id="128_1479" route="128" depart="1479" />
    <vehicle id="129_1484" route="129" depart="1484" />
    <vehicle id="130_1525" route="130" depart="1525" />
    <vehicle id="131_1532" route="131" depart="1532" />
    <vehicle id="132_1542" route="132" depart="1542" />
    <vehicle id="133_1545" route="133" depart="1545" />
    <vehicle id="134_1553" route="134" depart="1553" />
    <vehicle id="135_1568" route="135" depart="1568" />
    <vehicle id="136_1572" route="136" depart="1572" />
    <vehicle id="137_1573" route="137" depart="1573" />
    <vehicle id="138_1576" route="138" depart="1576" />
    <vehicle id="139_1581" route="139" depart="1581" />
    <vehicle id="140_1594" route="140" depart="1594" />
    <vehicle id="141_1609" route="141" depart="1609" />
    <vehicle id="142_1631" route="142" depart="1631" />
    <vehicle id="143_1639" route="143" depart="1639" />
    <vehicle id="144_1642" route="144" depart="1642" />
    <vehicle id="145_1688" route="145" depart="1688" />
    <vehicle id="146_1689" route="146" depart="1689" />
    <vehicle id="147_1701" route="147" depart="1701" />
    <vehicle id="148_1703" route="148" depart="1703" />
    <vehicle id="149_1719" route="149" depart="1719" />
    <vehicle id="150_1724" route="150" depart="1724" />
    <vehicle id="151_1728" route="151" depart="1728" />
    <vehicle id="152_1730" route="152" depart="1730" />
    <vehicle id="153_1745" route="153" depart="1745" />
    <vehicle id="154_1752" route="154" depart="1752" />
    <vehicle id="155_1756" route="155" depart="1756" />
    <vehicle id="156_1762" route="156" depart="1762" />
    <vehicle id="157_1767" route="157" depart="1767" />
    <vehicle id="158_1777" route="158" depart="1777" />
    <vehicle id="159_1785" route="159" depart="1785" />
    <vehicle id="160_1788" route="160" depart="1788" />
    <vehicle id="161_1791" route="161" depart="1791" />
    <vehicle id="162_1797" route="162" depart="1797" />
    <vehicle id="163_1800" route="163" depart="1800" />
    <vehicle id="164_1801" route="164" depart="1801" />
    <vehicle id="165_1838" route="165" depart="1838" />
    <vehicle id="166_1846" route="166" depart="1846" />
    <vehicle id="167_1853" route="167" depart="1853" />
    <vehicle id="168_1854" route="168" depart="1854" />
    <vehicle id="169_1866" route="169" depart="1866" />
    <vehicle id="170_1870" route="170" depart="1870" />
    <vehicle id="171_1883" route="171" depart="1883" />
    <vehicle id="172_1884" route="172" depart="1884" />
    <vehicle id="173_1901" route="173" depart="1901" />
    <vehicle id="174_1902" route="174" depart="1902" />
    <vehicle id="175_1932" route="175" depart="1932" />
    <vehicle id="176_1934" route="176" depart="1934" />
    <vehicle id="177_1959" route="177" depart="1959" />
    <vehicle id="178_1982" route="178" depart="1982" />
    <vehicle id="179_1983" route="179" depart="1983" />
    <vehicle id="180_1997" route="180" depart="1997" />
    <vehicle id="181_2013" route="181" depart="2013" />
    <vehicle id="182_2029" route="182" depart="2029" />
    <vehicle id="183_2033" route="183" depart="2033" />
    <vehicle id="184_2038" route="184" depart="2038" />
    <vehicle id="185_2041" route="185" depart="2041" />
    <vehicle id="186_2049" route="186" depart="2049" />
    <vehicle id="187_2054" route="187" depart="2054" />
    <vehicle id="188_2063" route="188" depart="2063" />
    <vehicle id="189_2064" route="189" depart="2064" />
    <vehicle id="190_2074" route="190" depart="2074" />
    <vehicle id="191_2084" route="191" depart="2084" />
    <vehicle id="192_2087" route="192" depart="2087" />
    <vehicle id="193_2097" route="193" depart="2097" />
    <vehicle id="194_2098" route="194" depart="2098" />
    <vehicle id="195_2102" route="195" depart="2102" />
    <vehicle id="196_2110" route="196" depart="2110" />
    <vehicle id="197_2117" route="197" depart="2117" />
    <vehicle id="198_2129" route="198" depart="2129" />
    <vehicle id="199_2148" route="199" depart="2148" />
    <vehicle id="200_2163" route="200" depart="2163" />
    <vehicle id="201_2167" route="201" depart="2167" />
    <vehicle id="202_2197" route="202" depart="2197" />
    <vehicle id="203_2207" route="203" depart="2207" />
    <vehicle id="204_2209" route="204" depart="2209" />
    <vehicle id="205_2214" route="205" depart="2214" />
    <vehicle id="206_2218" route="206" depart="2218" />
    <vehicle id="207_2219" route="207" depart="2219" />
    <vehicle id="208_2234" route="208" depart="2234" />
    <vehicle id="209_2251" route="209" depart="2251" />
    <vehicle id="210_2255" route="210" depart="2255" />
    <vehicle id="211_2256" route="211" depart="2256" />
    <vehicle id="212_2262" route="212" depart="2262" />
    <vehicle id="213_2287" route="213" depart="2287" />
    <vehicle id="214_2290" route="214" depart="2290" />
    <vehicle id="215_2295" route="215" depart="2295" />
    <vehicle id="216_2299" route="216" depart="2299" />
    <vehicle id="217_2300" route="217" depart="2300" />
    <vehicle id="218_2311" route="218" depart="2311" />
    <vehicle id="219_2314" route="219" depart="2314" />
    <vehicle id="220_2315" route="220" depart="2315" />
    <vehicle id="221_2331" route="221" depart="2331" />
    <vehicle id="222_2343" route="222" depart="2343" />
    <vehicle id="223_2344" route="223" depart="2344" />
    <vehicle id="224_2345" route="224" depart="2345" />
    <vehicle id="225_2349" route="225" depart="2349" />
    <vehicle id="226_2355" route="226" depart="2355" />
    <vehicle id="227_2399" route="227" depart="2399" />
    <vehicle id="228_2433" route="228" depart="2433" />
    <vehicle id="229_2443" route="229" depart="2443" />
    <vehicle id="230_2446" route="230" depart="2446" />
    <vehicle id="231_2456" route="231" depart="2456" />
    <vehicle id="232_2462" route="232" depart="2462" />
    <vehicle id="233_2468" route="233" depart="2468" />
    <vehicle id="234_2485" route="234" depart="2485" />
    <vehicle id="235_2486" route="235" depart="2486" />
    <vehicle id="236_2490" route="236" depart="2490" />
    <vehicle id="237_2494" route="237" depart="2494" />
    <vehicle id="238_2500" route="238" depart="2500" />
    <vehicle id="239_2509" route="239" depart="2509" />
    <vehicle id="240_2531" route="240" depart="2531" />
    <vehicle id="241_2549" route="241" depart="2549" />
    <vehicle id="242_2550" route="242" depart="2550" />
    <vehicle id="243_2553" route="243" depart="2553" />
    <vehicle id="244_2555" route="244" depart="2555" />
    <vehicle id="245_2556" route="245" depart="2556" />
    <vehicle id="246_2570" route="246" depart="2570" />
    <vehicle id="247_2575" route="247" depart="2575" />
    <vehicle id="248_2579" route="248" depart="2579" />
    <vehicle id="249_2587" route="249" depart="2587" />
    <vehicle id="250_2590" route="250" depart="2590" />
    <vehicle id="251_2592" route="251" depart="2592" />
    <vehicle id="252_2595" route="252" depart="2595" />
    <vehicle id="253_2605" route="253" depart="2605" />
    <vehicle id="254_2611" route="254" depart="2611" />
    <vehicle id="255_2612" route="255" depart="2612" />
    <vehicle id="256_2621" route="256" depart="2621" />
    <vehicle id="257_2622" route="257" depart="2622" />
    <vehicle id="258_2626" route="258" depart="2626" />
    <vehicle id="259_2627" route="259" depart="2627" />
    <vehicle id="260_2635" route="260" depart="2635" />
    <vehicle id="261_2639" route="261" depart="2639" />
    <vehicle id="262_2645" route="262" depart="2645" />
    <vehicle id="263_2685" route="263" depart="2685" />
    <vehicle id="264_2700" route="264" depart="2700" />
    <vehicle id="265_2702" route="265" depart="2702" />
    <vehicle id="266_2724" route="266" depart="2724" />
    <vehicle id="267_2745" route="267" depart="2745" />
    <vehicle id="268_2747" route="268" depart="2747" />
    <vehicle id="269_2752" route="269" depart="2752" />
    <vehicle id="270_2763" route="270" depart="2763" />
    <vehicle id="271_2764" route="271" depart="2764" />
    <vehicle id="272_2767" route="272" depart="2767" />
    <vehicle id="273_2769" route="273" depart="2769" />
    <vehicle id="274_2775" route="274" depart="2775" />
    <vehicle id="275_2802" route="275" depart="2802" />
    <vehicle id="276_2808" route="276" depart="2808" />
    <vehicle id="277_2812" route="277" depart="2812" />
    <vehicle id="278_2813" route="278" depart="2813" />
    <vehicle id="279_2815" route="279" depart="2815" />
    <vehicle id="280_2821" route="280" depart="2821" />
    <vehicle id="281_2835" route="281" depart="2835" />
    <vehicle id="282_2872" route="282" depart="2872" />
    <vehicle id="283_2882" route="283" depart="2882" />
    <vehicle id="284_2899" route="284" depart="2899" />
    <vehicle id="285_2909" route="285" depart="2909" />
    <vehicle id="286_2913" route="286" depart="2913" />
    <vehicle id="287_2922" route="287" depart="2922" />
    <vehicle id="288_2927" route="288" depart="2927" />
    <vehicle id="289_2929" route="289" depart="2929" />
    <vehicle id="290_2956" route="290" depart="2956" />
    <vehicle id="291_2959" route="291" depart="2959" />
    <vehicle id="292_2984" route="292" depart="2984" />
    <vehicle id="293_2997" route="293" depart="2997" />
    <vehicle id="294_3007" route="294" depart="3007" />
    <vehicle id="295_3013" route="295" depart="3013" />
    <vehicle id="296_3018" route="296" depart="3018" />
    <vehicle id="297_3025" route="297" depart="3025" />
    <vehicle id="298_3032" route="298" depart="3032" />
    <vehicle id="299_3038" route="299" depart="3038" />
    <vehicle id="300_3041" route="300" depart="3041" />
    <vehicle id="301_3045" route="301" depart="3045" />
    <vehicle id="302_3048" route="302" depart="3048" />
    <vehicle id="303_3056" route="303" depart="3056" />
    <vehicle id="304_3066" route="304" depart="3066" />
    <vehicle id="305_3069" route="305" depart="3069" />
    <vehicle id="306_3076" route="306" depart="3076" />
    <vehicle id="307_3102" route="307" depart="3102" />
    <vehicle id="308_3115" route="308" depart="3115" />
    <vehicle id="309_3117" route="309" depart="3117" />
    <vehicle id="310_3137" route="310" depart="3137" />
    <vehicle id="311_3141" route="311" depart="3141" />