<routes>

    <route id="1" edges="5i 1i 2o"/>
    <route id="2" edges="2i 1o 5o"/>
    <route id="3" edges="7i 6o"/>
    <route id="4" edges="2i 1o 5o"/>
    <route id="5" edges="7i 6o"/>
    <route id="6" edges="3i 4o"/>
    <route id="7" edges="6i 7o"/>
    <route id="8" edges="7i 6o"/>
    <route id="9" edges="5i 1i 2o"/>
    <route id="10" edges="4i 3o"/>
    <route id="11" edges="2i 1o 5o"/>
    <route id="12" edges="4i 3o"/>
    <route id="13" edges="6i 7o"/>
    <route id="14" edges="6i 7o"/>
    <route id="15" edges="3i 4o"/>
    <route id="16" edges="2i 1o 5o"/>
    <route id="17" edges="3i 4o"/>
    <route id="18" edges="2i 1o 5o"/>
    <route id="19" edges="3i 4o"/>
    <route id="20" edges="7i 6o"/>
    <route id="21" edges="5i 1i 2o"/>
    <route id="22" edges="2i 1o 5o"/>
    <route id="23" edges="7i 6o"/>
    <route id="24" edges="6i 7o"/>
    <route id="25" edges="3i 4o"/>
    <route id="26" edges="2i 1o 5o"/>
    <route id="27" edges="2i 1o 5o"/>
    <route id="28" edges="6i 7o"/>
    <route id="29" edges="4i 3o"/>
    <route id="30" edges="7i 6o"/>
    <route id="31" edges="4i 3o"/>
    <route id="32" edges="7i 6o"/>
    <route id="33" edges="6i 7o"/>
    <route id="34" edges="7i 6o"/>
    <route id="35" edges="7i 6o"/>
    <route id="36" edges="2i 1o 5o"/>
    <route id="37" edges="3i 4o"/>
    <route id="38" edges="6i 7o"/>
    <route id="39" edges="3i 4o"/>
    <route id="40" edges="2i 1o 5o"/>
    <route id="41" edges="3i 4o"/>
    <route id="42" edges="7i 6o"/>
    <route id="43" edges="5i 1i 2o"/>
    <route id="44" edges="5i 1i 2o"/>
    <route id="45" edges="5i 1i 2o"/>
    <route id="46" edges="5i 1i 2o"/>
    <route id="47" edges="6i 7o"/>
    <route id="48" edges="2i 1o 5o"/>
    <route id="49" edges="7i 6o"/>
    <route id="50" edges="3i 4o"/>
    <route id="51" edges="5i 1i 2o"/>
    <route id="52" edges="3i 4o"/>
    <route id="53" edges="6i 7o"/>
    <route id="54" edges="6i 7o"/>
    <route id="55" edges="6i 7o"/>
    <route id="56" edges="7i 6o"/>
    <route id="57" edges="5i 1i 2o"/>
    <route id="58" edges="5i 1i 2o"/>
    <route id="59" edges="6i 7o"/>
    <route id="60" edges="3i 4o"/>
    <route id="61" edges="7i 6o"/>
    <route id="62" edges="6i 7o"/>
    <route id="63" edges="2i 1o 5o"/>
    <route id="64" edges="2i 1o 5o"/>
    <route id="65" edges="2i 1o 5o"/>
    <route id="66" edges="6i 7o"/>
    <route id="67" edges="2i 1o 5o"/>
    <route id="68" edges="5i 1i 2o"/>
    <route id="69" edges="5i 1i 2o"/>
    <route id="70" edges="2i 1o 5o"/>
    <route id="71" edges="3i 4o"/>
    <route id="72" edges="6i 7o"/>
    <route id="73" edges="2i 1o 5o"/>
    <route id="74" edges="6i 7o"/>
    <route id="75" edges="4i 3o"/>
    <route id="76" edges="4i 3o"/>
    <route id="77" edges="7i 6o"/>
    <route id="78" edges="5i 1i 2o"/>
    <route id="79" edges="2i 1o 5o"/>
    <route id="80" edges="4i 3o"/>
    <route id="81" edges="5i 1i 2o"/>
    <route id="82" edges="4i 3o"/>
    <route id="83" edges="6i 7o"/>
    <route id="84" edges="3i 4o"/>
    <route id="85" edges="5i 1i 2o"/>
    <route id="86" edges="7i 6o"/>
    <route id="87" edges="5i 1i 2o"/>
    <route id="88" edges="4i 3o"/>
    <route id="89" edges="3i 4o"/>
    <route id="90" edges="4i 3o"/>
    <route id="91" edges="2i 1o 5o"/>
    <route id="92" edges="7i 6o"/>
    <route id="93" edges="6i 7o"/>
    <route id="94" edges="6i 7o"/>
    <route id="95" edges="2i 1o 5o"/>
    <route id="96" edges="6i 7o"/>
    <route id="97" edges="6i 7o"/>
    <route id="98" edges="3i 4o"/>
    <route id="99" edges="6i 7o"/>
    <route id="100" edges="2i 1o 5o"/>
    <route id="101" edges="5i 1i 2o"/>
    <route id="102" edges="6i 7o"/>
    <route id="103" edges="4i 3o"/>
    <route id="104" edges="4i 3o"/>
    <route id="105" edges="4i 3o"/>
    <route id="106" edges="7i 6o"/>
    <route id="107" edges="3i 4o"/>
    <route id="108" edges="2i 1o 5o"/>
    <route id="109" edges="5i 1i 2o"/>
    <route id="110" edges="4i 3o"/>
    <route id="111" edges="2i 1o 5o"/>
    <route id="112" edges="7i 6o"/>
    <route id="113" edges="3i 4o"/>
    <route id="114" edges="2i 1o 5o"/>
    <route id="115" edges="5i 1i 2o"/>
    <route id="116" edges="2i 1o 5o"/>
    <route id="117" edges="2i 1o 5o"/>
    <route id="118" edges="4i 3o"/>
    <route id="119" edges="3i 4o"/>
    <route id="120" edges="2i 1o 5o"/>
    <route id="121" edges="6i 7o"/>
    <route id="122" edges="5i 1i 2o"/>
    <route id="123" edges="5i 1i 2o"/>
    <route id="124" edges="5i 1i 2o"/>
    <route id="125" edges="4i 3o"/>
    <route id="126" edges="3i 4o"/>
    <route id="127" edges="2i 1o 5o"/>
    <route id="128" edges="7i 6o"/>
    <route id="129" edges="4i 3o"/>
    <route id="130" edges="7i 6o"/>
    <route id="131" edges="7i 6o"/>
    <route id="132" edges="3i 4o"/>
    <route id="133" edges="7i 6o"/>
    <route id="134" edges="7i 6o"/>
    <route id="135" edges="2i 1o 5o"/>
    <route id="136" edges="4i 3o"/>
    <route id="137" edges="3i 4o"/>
    <route id="138" edges="6i 7o"/>
    <route id="139" edges="6i 7o"/>
    <route id="140" edges="7i 6o"/>
    <route id="141" edges="3i 4o"/>
    <route id="142" edges="4i 3o"/>
    <route id="143" edges="6i 7o"/>
    <route id="144" edges="7i 6o"/>
    <route id="145" edges="5i 1i 2o"/>
    <route id="146" edges="6i 7o"/>
    <route id="147" edges="4i 3o"/>
    <route id="148" edges="5i 1i 2o"/>
    <route id="149" edges="7i 6o"/>
    <route id="150" edges="5i 1i 2o"/>
    <route id="151" edges="7i 6o"/>
    <route id="152" edges="5i 1i 2o"/>
    <route id="153" edges="5i 1i 2o"/>
    <route id="154" edges="7i 6o"/>
    <route id="155" edges="4i 3o"/>
    <route id="156" edges="3i 4o"/>
    <route id="157" edges="5i 1i 2o"/>
    <route id="158" edges="5i 1i 2o"/>
    <route id="159" edges="7i 6o"/>
    <route id="160" edges="5i 1i 2o"/>
    <route id="161" edges="4i 3o"/>
    <route id="162" edges="5i 1i 2o"/>
    <route id="163" edges="6i 7o"/>
    <route id="164" edges="5i 1i 2o"/>
    <route id="165" edges="2i 1o 5o"/>
    <route id="166" edges="4i 3o"/>
    <route id="167" edges="6i 7o"/>
    <route id="168" edges="2i 1o 5o"/>
    <route id="169" edges="3i 4o"/>
    <route id="170" edges="4i 3o"/>
    <route id="171" edges="4i 3o"/>
    <route id="172" edges="2i 1o 5o"/>
    <route id="173" edges="4i 3o"/>
    <route id="174" edges="3i 4o"/>
    <route id="175" edges="2i 1o 5o"/>
    <route id="176" edges="6i 7o"/>
    <route id="177" edges="4i 3o"/>
    <route id="178" edges="3i 4o"/>
    <route id="179" edges="4i 3o"/>
    <route id="180" edges="7i 6o"/>
    <route id="181" edges="3i 4o"/>
    <route id="182" edges="6i 7o"/>
    <route id="183" edges="7i 6o"/>
    <route id="184" edges="3i 4o"/>
    <route id="185" edges="6i 7o"/>
    <route id="186" edges="5i 1i 2o"/>
    <route id="187" edges="5i 1i 2o"/>
    <route id="188" edges="5i 1i 2o"/>
    <route id="189" edges="4i 3o"/>
    <route id="190" edges="2i 1o 5o"/>
    <route id="191" edges="6i 7o"/>
    <route id="192" edges="2i 1o 5o"/>
    <route id="193" edges="4i 3o"/>
    <route id="194" edges="7i 6o"/>
    <route id="195" edges="5i 1i 2o"/>
    <route id="196" edges="5i 1i 2o"/>
    <route id="197" edges="3i 4o"/>
    <route id="198" edges="4i 3o"/>
    <route id="199" edges="7i 6o"/>
    <route id="200" edges="7i 6o"/>
    <route id="201" edges="6i 7o"/>
    <route id="202" edges="2i 1o 5o"/>
    <route id="203" edges="2i 1o 5o"/>
    <route id="204" edges="7i 6o"/>
    <route id="205" edges="5i 1i 2o"/>
    <route id="206" edges="2i 1o 5o"/>
    <route id="207" edges="3i 4o"/>
    <route id="208" edges="4i 3o"/>
    <route id="209" edges="4i 3o"/>
    <route id="210" edges="6i 7o"/>
    <route id="211" edges="6i 7o"/>
    <route id="212" edges="4i 3o"/>
    <route id="213" edges="3i 4o"/>
    <route id="214" edges="7i 6o"/>
    <route id="215" edges="3i 4o"/>
    <route id="216" edges="6i 7o"/>
    <route id="217" edges="3i 4o"/>
    <route id="218" edges="2i 1o 5o"/>
    <route id="219" edges="4i 3o"/>
    <route id="220" edges="4i 3o"/>
    <route id="221" edges="5i 1i 2o"/>
    <route id="222" edges="7i 6o"/>
    <route id="223" edges="2i 1o 5o"/>
    <route id="224" edges="6i 7o"/>
    <route id="225" edges="2i 1o 5o"/>
    <route id="226" edges="4i 3o"/>
    <route id="227" edges="2i 1o 5o"/>
    <route id="228" edges="5i 1i 2o"/>
    <route id="229" edges="6i 7o"/>
    <route id="230" edges="2i 1o 5o"/>
    <route id="231" edges="5i 1i 2o"/>
    <route id="232" edges="5i 1i 2o"/>
    <route id="233" edges="7i 6o"/>
    <route id="234" edges="4i 3o"/>
    <route id="235" edges="6i 7o"/>
    <route id="236" edges="4i 3o"/>
    <route id="237" edges="6i 7o"/>
    <route id="238" edges="3i 4o"/>
    <route id="239" edges="7i 6o"/>
    <route id="240" edges="7i 6o"/>
    <route id="241" edges="6i 7o"/>
    <route id="242" edges="2i 1o 5o"/>
    <route id="243" edges="4i 3o"/>
    <route id="244" edges="7i 6o"/>
    <route id="245" edges="7i 6o"/>
    <route id="246" edges="6i 7o"/>
    <route id="247" edges="2i 1o 5o"/>
    <route id="248" edges="4i 3o"/>
    <route id="249" edges="4i 3o"/>
    <route id="250" edges="7i 6o"/>
    <route id="251" edges="4i 3o"/>
    <route id="252" edges="2i 1o 5o"/>
    <route id="253" edges="3i 4o"/>
    <route id="254" edges="6i 7o"/>
    <route id="255" edges="6i 7o"/>
    <route id="256" edges="7i 6o"/>
    <route id="257" edges="7i 6o"/>
    <route id="258" edges="2i 1o 5o"/>
    <route id="259" edges="3i 4o"/>
    <route id="260" edges="2i 1o 5o"/>
    <route id="261" edges="3i 4o"/>
    <route id="262" edges="4i 3o"/>
    <route id="263" edges="2i 1o 5o"/>
    <route id="264" edges="6i 7o"/>
    <route id="265" edges="2i 1o 5o"/>
    <route id="266" edges="5i 1i 2o"/>
    <route id="267" edges="3i 4o"/>
    <route id="268" edges="2i 1o 5o"/>
    <route id="269" edges="4i 3o"/>
    <route id="270" edges="4i 3o"/>
    <route id="271" edges="3i 4o"/>
    <route id="272" edges="7i 6o"/>
    <route id="273" edges="2i 1o 5o"/>
    <route id="274" edges="7i 6o"/>
    <route id="275" edges="7i 6o"/>
    <route id="276" edges="3i 4o"/>
    <route id="277" edges="5i 1i 2o"/>
    <route id="278" edges="2i 1o 5o"/>
    <route id="279" edges="3i 4o"/>
    <route id="280" edges="7i 6o"/>
    <route id="281" edges="5i 1i 2o"/>
    <route id="282" edges="4i 3o"/>
    <route id="283" edges="6i 7o"/>
    <route id="284" edges="2i 1o 5o"/>
    <route id="285" edges="5i 1i 2o"/>
    <route id="286" edges="2i 1o 5o"/>
    <route id="287" edges="3i 4o"/>
    <route id="288" edges="7i 6o"/>
    <route id="289" edges="2i 1o 5o"/>
    <route id="290" edges="4i 3o"/>
    <route id="291" edges="6i 7o"/>
    <route id="292" edges="2i 1o 5o"/>
    <route id="293" edges="4i 3o"/>
    <route id="294" edges="6i 7o"/>
    <route id="295" edges="5i 1i 2o"/>
    <route id="296" edges="4i 3o"/>
    <route id="297" edges="5i 1i 2o"/>
    <route id="298" edges="6i 7o"/>
    <route id="299" edges="2i 1o 5o"/>
    <route id="300" edges="4i 3o"/>
    <route id="301" edges="5i 1i 2o"/>
    <route id="302" edges="4i 3o"/>
    <route id="303" edges="3i 4o"/>
    <route id="304" edges="5i 1i 2o"/>
    <route id="305" edges="6i 7o"/>
    <route id="306" edges="4i 3o"/>
    <route id="307" edges="3i 4o"/>
    <route id="308" edges="3i 4o"/>
    <route id="309" edges="7i 6o"/>
    <route id="310" edges="6i 7o"/>
    <route id="311" edges="3i 4o"/>
    <route id="312" edges="7i 6o"/>
    <route id="313" edges="4i 3o"/>
    <route id="314" edges="6i 7o"/>
    <route id="315" edges="6i 7o"/>
    <route id="316" edges="7i 6o"/>
    <route id="317" edges="4i 3o"/>
    <route id="318" edges="3i 4o"/>
    <route id="319" edges="7i 6o"/>
    <route id="320" edges="7i 6o"/>
    <route id="321" edges="6i 7o"/>
    <route id="322" edges="2i 1o 5o"/>
    <route id="323" edges="3i 4o"/>
    <route id="324" edges="7i 6o"/>
    <route id="325" edges="2i 1o 5o"/>
    <route id="326" edges="4i 3o"/>
    <route id="327" edges="3i 4o"/>
    <route id="328" edges="2i 1o 5o"/>
    <route id="329" edges="7i 6o"/>
    <route id="330" edges="3i 4o"/>
    <route id="331" edges="7i 6o"/>
    <route id="332" edges="3i 4o"/>
    <route id="333" edges="7i 6o"/>
    <route id="334" edges="2i 1o 5o"/>
    <route id="335" edges="5i 1i 2o"/>
    <route id="336" edges="5i 1i 2o"/>
    <route id="337" edges="5i 1i 2o"/>
    <route id="338" edges="4i 3o"/>
    <route id="339" edges="4i 3o"/>
    <route id="340" edges="2i 1o 5o"/>
    <route id="341" edges="6i 7o"/>
    <route id="342" edges="7i 6o"/>
    <route id="343" edges="7i 6o"/>
    <route id="344" edges="7i 6o"/>
    <route id="345" edges="2i 1o 5o"/>

    <vehicle id="1_0" route="1" depart="0" />
    <vehicle id="2_10" route="2" depart="10" />
    <vehicle id="3_17" route="3" depart="17" />
    <vehicle id="4_25" route="4" depart="25" />
    <vehicle id="5_51" route="5" depart="51" />
    <vehicle id="6_81" route="6" depart="81" />
    <vehicle id="7_85" route="7" depart="85" />
    <vehicle id="8_95" route="8" depart="95" />
    <vehicle id="9_96" route="9" depart="96" />
    <vehicle id="10_110" route="10" depart="110" />
    <vehicle id="11_111" route="11" depart="111" />
    <vehicle id="12_147" route="12" depart="147" />
    <vehicle id="13_150" route="13" depart="150" />
    <vehicle id="14_181" route="14" depart="181" />
    <vehicle id="15_187" route="15" depart="187" />
    <vehicle id="16_202" route="16" depart="202" />
    <vehicle id="17_206" route="17" depart="206" />
    <vehicle id="18_230" route="18" depart="230" />
    <vehicle id="19_234" route="19" depart="234" />
    <vehicle id="20_237" route="20" depart="237" />
    <vehicle id="21_247" route="21" depart="247" />
    <vehicle id="22_254" route="22" depart="254" />
    <vehicle id="23_256" route="23" depart="256" />
    <vehicle id="24_278" route="24" depart="278" />
    <vehicle id="25_287" route="25" depart="287" />
    <vehicle id="26_298" route="26" depart="298" />
    <vehicle id="27_315" route="27" depart="315" />
    <vehicle id="28_334" route="28" depart="334" />
    <vehicle id="29_337" route="29" depart="337" />
    <vehicle id="30_341" route="30" depart="341" />
    <vehicle id="31_345" route="31" depart="345" />
    <vehicle id="32_355" route="32" depart="355" />
    <vehicle id="33_356" route="33" depart="356" />
    <vehicle id="34_361" route="34" depart="361" />
    <vehicle id="35_372" route="35" depart="372" />
    <vehicle id="36_375" route="36" depart="375" />
    <vehicle id="37_378" route="37" depart="378" />
    <vehicle id="38_382" route="38" depart="382" />
    <vehicle id="39_386" route="39" depart="386" />
    <vehicle id="40_390" route="40" depart="390" />
    <vehicle id="41_391" route="41" depart="391" />
    <vehicle id="42_414" route="42" depart="414" />
    <vehicle id="43_436" route="43" depart="436" />
    <vehicle id="44_437" route="44" depart="437" />
    <vehicle id="45_452" route="45" depart="452" />
    <vehicle id="46_468" route="46" depart="468" />
    <vehicle id="47_474" route="47" depart="474" />
    <vehicle id="48_506" route="48" depart="506" />
    <vehicle id="49_507" route="49" depart="507" />
    <vehicle id="50_509" route="50" depart="509" />
    <vehicle id="51_512" route="51" depart="512" />
    <vehicle id="52_519" route="52" depart="519" />
    <vehicle id="53_520" route="53" depart="520" />
    <vehicle id="54_528" route="54" depart="528" />
    <vehicle id="55_530" route="55" depart="530" />
    <vehicle id="56_532" route="56" depart="532" />
    <vehicle id="57_545" route="57" depart="545" />
    <vehicle id="58_548" route="58" depart="548" />
    <vehicle id="59_574" route="59" depart="574" />
    <vehicle id="60_576" route="60" depart="576" />
    <vehicle id="61_588" route="61" depart="588" />
    <vehicle id="62_597" route="62" depart="597" />
    <vehicle id="63_618" route="63" depart="618" />
    <vehicle id="64_623" route="64" depart="623" />
    <vehicle id="65_664" route="65" depart="664" />
    <vehicle id="66_682" route="66" depart="682" />
    <vehicle id="67_684" route="67" depart="684" />
    <vehicle id="68_707" route="68" depart="707" />
    <vehicle id="69_720" route="69" depart="720" />
    <vehicle id="70_743" route="70" depart="743" />
    <vehicle id="71_747" route="71" depart="747" />
    <vehicle id="72_757" route="72" depart="757" />
    <vehicle id="73_759" route="73" depart="759" />
    <vehicle id="74_765" route="74" depart="765" />
    <vehicle id="75_780" route="75" depart="780" />
    <vehicle id="76_786" route="76" depart="786" />
    <vehicle id="77_787" route="77" depart="787" />
    <vehicle id="78_802" route="78" depart="802" />
    <vehicle id="79_805" route="79" depart="805" />
    <vehicle id="80_845" route="80" depart="845" />
    <vehicle id="81_849" route="81" depart="849" />
    <vehicle id="82_857" route="82" depart="857" />
    <vehicle id="83_859" route="83" depart="859" />
    <vehicle id="84_885" route="84" depart="885" />
    <vehicle id="85_886" route="85" depart="886" />
    <vehicle id="86_894" route="86" depart="894" />
    <vehicle id="87_907" route="87" depart="907" />
    <vehicle id="88_912" route="88" depart="912" />
    <vehicle id="89_938" route="89" depart="938" />
    <vehicle id="90_951" route="90" depart="951" />
    <vehicle id="91_958" route="91" depart="958" />
    <vehicle id="92_967" route="92" depart="967" />
    <vehicle id="93_997" route="93" depart="997" />
    <vehicle id="94_1000" route="94" depart="1000" />
    <vehicle id="95_1005" route="95" depart="1005" />
    <vehicle id="96_1013" route="96" depart="1013" />
    <vehicle id="97_1018" route="97" depart="1018" />
    <vehicle id="98_1022" route="98" depart="1022" />
    <vehicle id="99_1024" route="99" depart="1024" />
    <vehicle id="100_1031" route="100" depart="1031" />
    <vehicle id="101_1033" route="101" depart="1033" />
    <vehicle id="102_1044" route="102" depart="1044" />
    <vehicle id="103_1073" route="103" depart="1073" />
    <vehicle id="104_1094" route="104" depart="1094" />
    <vehicle id="105_1097" route="105" depart="1097" />
    <vehicle id="106_1112" route="106" depart="1112" />
    <vehicle id="107_1118" route="107" depart="1118" />
    <vehicle id="108_1134" route="108" depart="1134" />
    <vehicle id="109_1142" route="109" depart="1142" />
    <vehicle id="110_1154" route="110" depart="1154" />
    <vehicle id="111_1169" route="111" depart="1169" />
    <vehicle id="112_1172" route="112" depart="1172" />
    <vehicle id="113_1191" route="113" depart="1191" />
    <vehicle id="114_1209" route="114" depart="1209" />
    <vehicle id="115_1221" route="115" depart="1221" />
    <vehicle id="116_1223" route="116" depart="1223" />
    <vehicle id="117_1226" route="117" depart="1226" />
    <vehicle id="118_1253" route="118" depart="1253" />
    <vehicle id="119_1256" route="119" depart="1256" />
    <vehicle id="120_1262" route="120" depart="1262" />
    <vehicle id="121_1300" route="121" depart="1300" />
    <vehicle id="122_1315" route="122" depart="1315" />
    <vehicle id="123_1321" route="123" depart="1321" />
    <vehicle id="124_1329" route="124" depart="1329" />
    <vehicle id="125_1330" route="125" depart="1330" />
    <vehicle id="126_1339" route="126" depart="1339" />
    <vehicle id="127_1355" route="127" depart="1355" />
    <vehicle id="128_1358" route="128" depart="1358" />
    <vehicle id="129_1359" route="129" depart="1359" />
    <vehicle id="130_1360" route="130" depart="1360" />
    <vehicle id="131_1363" route="131" depart="1363" />
    <vehicle id="132_1366" route="132" depart="1366" />
    <vehicle id="133_1378" route="133" depart="1378" />
    <vehicle id="134_1387" route="134" depart="1387" />
    <vehicle id="135_1404" route="135" depart="1404" />
    <vehicle id="136_1428" route="136" depart="1428" />
    <vehicle id="137_1430" route="137" depart="1430" />
    <vehicle id="138_1447" route="138" depart="1447" />
    <vehicle id="139_1451" route="139" depart="1451" />
    <vehicle id="140_1461" route="140" depart="1461" />
    <vehicle id="141_1462" route="141" depart="1462" />
    <vehicle id="142_1472" route="142" depart="1472" />
    <vehicle id="143_1475" route="143" depart="1475" />
    <vehicle id="144_1478" route="144" depart="1478" />
    <vehicle id="145_1479" route="145" depart="1479" />
    <vehicle id="146_1482" route="146" depart="1482" />
    <vehicle id="147_1495" route="147" depart="1495" />
    <vehicle id="148_1497" route="148" depart="1497" />
    <vehicle id="149_1498" route="149" depart="1498" />
    <vehicle id="150_1501" route="150" depart="1501" />
    <vehicle id="151_1513" route="151" depart="1513" />
    <vehicle id="152_1523" route="152" depart="1523" />
    <vehicle id="153_1525" route="153" depart="1525" />
    <vehicle id="154_1528" route="154" depart="1528" />
    <vehicle id="155_1553" route="155" depart="1553" />
    <vehicle id="156_1556" route="156" depart="1556" />
    <vehicle id="157_1596" route="157" depart="1596" />
    <vehicle id="158_1598" route="158" depart="1598" />
    <vehicle id="159_1599" route="159" depart="1599" />
    <vehicle id="160_1624" route="160" depart="1624" />
    <vehicle id="161_1630" route="161" depart="1630" />
    <vehicle id="162_1646" route="162" depart="1646" />
    <vehicle id="163_1647" route="163" depart="1647" />
    <vehicle id="164_1668" route="164" depart="1668" />
    <vehicle id="165_1671" route="165" depart="1671" />
    <vehicle id="166_1677" route="166" depart="1677" />
    <vehicle id="167_1683" route="167" depart="1683" />
    <vehicle id="168_1706" route="168" depart="1706" />
    <vehicle id="169_1709" route="169" depart="1709" />
    <vehicle id="170_1728" route="170" depart="1728" />
    <vehicle id="171_1749" route="171" depart="1749" />
    <vehicle id="172_1752" route="172" depart="1752" />
    <vehicle id="173_1771" route="173" depart="1771" />
    <vehicle id="174_1778" route="174" depart="1778" />
    <vehicle id="175_1795" route="175" depart="1795" />
    <vehicle id="176_1797" route="176" depart="1797" />
    <vehicle id="177_1802" route="177" depart="1802" />
    <vehicle id="178_1805" route="178" depart="1805" />
    <vehicle id="179_1807" route="179" depart="1807" />
    <vehicle id="180_1830" route="180" depart="1830" />
    <vehicle id="181_1831" route="181" depart="1831" />
    <vehicle id="182_1847" route="182" depart="1847" />
    <vehicle id="183_1849" route="183" depart="1849" />
    <vehicle id="184_1854" route="184" depart="1854" />
    <vehicle id="185_1867" route="185" depart="1867" />
    <vehicle id="186_1870" route="186" depart="1870" />
    <vehicle id="187_1873" route="187" depart="1873" />
    <vehicle id="188_1877" route="188" depart="1877" />
    <vehicle id="189_1881" route="189" depart="1881" />
    <vehicle id="190_1885" route="190" depart="1885" />
    <vehicle id="191_1901" route="191" depart="1901" />
    <vehicle id="192_1905" route="192" depart="1905" />
    <vehicle id="193_1908" route="193" depart="1908" />
    <vehicle id="194_1912" route="194" depart="1912" />
    <vehicle id="195_1916" route="195" depart="1916" />
    <vehicle id="196_1953" route="196" depart="1953" />
    <vehicle id="197_1979" route="197" depart="1979" />
    <vehicle id="198_1980" route="198" depart="1980" />
    <vehicle id="199_1981" route="199" depart="1981" />
    <vehicle id="200_1984" route="200" depart="1984" />
    <vehicle id="201_1993" route="201" depart="1993" />
    <vehicle id="202_1997" route="202" depart="1997" />
    <vehicle id="203_2001" route="203" depart="2001" />
    <vehicle id="204_2005" route="204" depart="2005" />
    <vehicle id="205_2008" route="205" depart="2008" />
    <vehicle id="206_2041" route="206" depart="2041" />
    <vehicle id="207_2042" route="207" depart="2042" />
    <vehicle id="208_2047" route="208" depart="2047" />
    <vehicle id="209_2051" route="209" depart="2051" />
    <vehicle id="210_2110" route="210" depart="2110" />
    <vehicle id="211_2113" route="211" depart="2113" />
    <vehicle id="212_2116" route="212" depart="2116" />
    <vehicle id="213_2131" route="213" depart="2131" />
    <vehicle id="214_2137" route="214" depart="2137" />
    <vehicle id="215_2139" route="215" depart="2139" />
    <vehicle id="216_2171" route="216" depart="2171" />
    <vehicle id="217_2181" route="217" depart="2181" />
    <vehicle id="218_2182" route="218" depart="2182" />
    <vehicle id="219_2210" route="219" depart="2210" />
    <vehicle id="220_2224" route="220" depart="2224" />
    <vehicle id="221_2225" route="221" depart="2225" />
    <vehicle id="222_2258" route="222" depart="2258" />
    <vehicle id="223_2260" route="223" depart="2260" />
    <vehicle id="224_2283" route="224" depart="2283" />
    <vehicle id="225_2284" route="225" depart="2284" />
    <vehicle id="226_2290" route="226" depart="2290" />
    <vehicle id="227_2291" route="227" depart="2291" />
    <vehicle id="228_2294" route="228" depart="2294" />
    <vehicle id="229_2300" route="229" depart="2300" />
    <vehicle id="230_2301" route="230" depart="2301" />
    <vehicle id="231_2332" route="231" depart="2332" />
    <vehicle id="232_2339" route="232" depart="2339" />
    <vehicle id="233_2342" route="233" depart="2342" />
    <vehicle id="234_2343" route="234" depart="2343" />
    <vehicle id="235_2364" route="235" depart="2364" />
    <vehicle id="236_2369" route="236" depart="2369" />
    <vehicle id="237_2395" route="237" depart="2395" />
    <vehicle id="238_2397" route="238" depart="2397" />
    <vehicle id="239_2399" route="239" depart="2399" />
    <vehicle id="240_2411" route="240" depart="2411" />
    <vehicle id="241_2412" route="241" depart="2412" />
    <vehicle id="242_2417" route="242" depart="2417" />
    <vehicle id="243_2435" route="243" depart="2435" />
    <vehicle id="244_2437" route="244" depart="2437" />
    <vehicle id="245_2440" route="245" depart="2440" />
    <vehicle id="246_2444" route="246" depart="2444" />
    <vehicle id="247_2445" route="247" depart="2445" />
    <vehicle id="248_2467" route="248" depart="2467" />
    <vehicle id="249_2469" route="249" depart="2469" />
    <vehicle id="250_2470" route="250" depart="2470" />
    <vehicle id="251_2472" route="251" depart="2472" />
    <vehicle id="252_2499" route="252" depart="2499" />
    <vehicle id="253_2501" route="253" depart="2501" />
    <vehicle id="254_2524" route="254" depart="2524" />
    <vehicle id="255_2541" route="255" depart="2541" />
    <vehicle id="256_2543" route="256" depart="2543" />
    <vehicle id="257_2556" route="257" depart="2556" />
    <vehicle id="258_2559" route="258" depart="2559" />
    <vehicle id="259_2583" route="259" depart="2583" />
    <vehicle id="260_2591" route="260" depart="2591" />
    <vehicle id="261_2592" route="261" depart="2592" />
    <vehicle id="262_2596" route="262" depart="2596" />
    <vehicle id="263_2598" route="263" depart="2598" />
    <vehicle id="264_2622" route="264" depart="2622" />
    <vehicle id="265_2629" route="265" depart="2629" />
    <vehicle id="266_2637" route="266" depart="2637" />
    <vehicle id="267_2648" route="267" depart="2648" />
    <vehicle id="268_2659" route="268" depart="2659" />
    <vehicle id="269_2661" route="269" depart="2661" />
    <vehicle id="270_2707" route="270" depart="2707" />
    <vehicle id="271_2714" route="271" depart="2714" />
    <vehicle id="272_2717" route="272" depart="2717" />
    <vehicle id="273_2742" route="273" depart="2742" />
    <vehicle id="274_2750" route="274" depart="2750" />
    <vehicle id="275_2752" route="275" depart="2752" />
    <vehicle id="276_2754" route="276" depart="2754" />
    <vehicle id="277_2758" route="277" depart="2758" />
    <vehicle id="278_2770" route="278" depart="2770" />
    <vehicle id="279_2774" route="279" depart="2774" />
    <vehicle id="280_2780" route="280" depart="2780" />
    <vehicle id="281_2792" route="281" depart="2792" />
    <vehicle id="282_2800" route="282" depart="2800" />
    <vehicle id="283_2819" route="283" depart="2819" />
    <vehicle id="284_2823" route="284" depart="2823" />
    <vehicle id="285_2837" route="285" depart="2837" />
    <vehicle id="286_2845" route="286" depart="2845" />
    <vehicle id="287_2859" route="287" depart="2859" />
    <vehicle id="288_2877" route="288" depart="2877" />
    <vehicle id="289_2905" route="289" depart="2905" />
    <vehicle id="290_2910" route="290" depart="2910" />
    <vehicle id="291_2916" route="291" depart="2916" />
    <vehicle id="292_2959" route="292" depart="2959" />
    <vehicle id="293_2966" route="293" depart="2966" />
    <vehicle id="294_2980" route="294" depart="2980" />
    <vehicle id="295_2999" route="295" depart="2999" />
    <vehicle id="296_3002" route="296" depart="3002" />
    <vehicle id="297_3013" route="297" depart="3013" />
    <vehicle id="298_3062" route="298" depart="3062" />
    <vehicle id="299_3079" route="299" depart="3079" />
    <vehicle id="300_3094" route="300" depart="3094" />
    <vehicle id="301_3100" route="301" depart="3100" />
    <vehicle id="302_3101" route="302" depart="3101" />
    <vehicle id="303_3102" route="303" depart="3102" />
    <vehicle id="304_3120" route="304" depart="3120" />
    <vehicle id="305_3122" route="305" depart="3122" />
    <vehicle id="306_3125" route="306" depart="3125" />
    <vehicle id="307_3128" route="307" depart="3128" />
    <vehicle id="308_3133" route="308" depart="3133" />
    <vehicle id="309_3138" route="309" depart="3138" />
    <vehicle id="310_3139" route="310" depart="3139" />
    <vehicle id="311_3144" route="311" depart="3144" />
    <vehicle id="312_3147" route="312" depart="3147" />
    <vehicle id="313_3166" route="313" depart="3166" />
    <vehicle id="314_3183" route="314" depart="3183" />
    <vehicle id="315_3197" route="315" depart="3197" />
    <vehicle id="316_3220" route="316" depart="3220" />