<routes>

    <route id="1" edges="4i 3o"/>
    <route id="2" edges="2i 1o 5o"/>
    <route id="3" edges="4i 3o"/>
    <route id="4" edges="5i 1i 2o"/>
    <route id="5" edges="4i 3o"/>
    <route id="6" edges="7i 6o"/>
    <route id="7" edges="6i 7o"/>
    <route id="8" edges="3i 4o"/>
    <route id="9" edges="3i 4o"/>
    <route id="10" edges="2i 1o 5o"/>
    <route id="11" edges="2i 1o 5o"/>
    <route id="12" edges="3i 4o"/>
    <route id="13" edges="5i 1i 2o"/>
    <route id="14" edges="4i 3o"/>
    <route id="15" edges="4i 3o"/>
    <route id="16" edges="4i 3o"/>
    <route id="17" edges="5i 1i 2o"/>
    <route id="18" edges="2i 1o 5o"/>
    <route id="19" edges="5i 1i 2o"/>
    <route id="20" edges="6i 7o"/>
    <route id="21" edges="5i 1i 2o"/>
    <route id="22" edges="3i 4o"/>
    <route id="23" edges="6i 7o"/>
    <route id="24" edges="6i 7o"/>
    <route id="25" edges="6i 7o"/>
    <route id="26" edges="5i 1i 2o"/>
    <route id="27" edges="3i 4o"/>
    <route id="28" edges="4i 3o"/>
    <route id="29" edges="5i 1i 2o"/>
    <route id="30" edges="6i 7o"/>
    <route id="31" edges="6i 7o"/>
    <route id="32" edges="6i 7o"/>
    <route id="33" edges="4i 3o"/>
    <route id="34" edges="2i 1o 5o"/>
    <route id="35" edges="3i 4o"/>
    <route id="36" edges="7i 6o"/>
    <route id="37" edges="2i 1o 5o"/>
    <route id="38" edges="4i 3o"/>
    <route id="39" edges="3i 4o"/>
    <route id="40" edges="4i 3o"/>
    <route id="41" edges="5i 1i 2o"/>
    <route id="42" edges="2i 1o 5o"/>
    <route id="43" edges="2i 1o 5o"/>
    <route id="44" edges="5i 1i 2o"/>
    <route id="45" edges="6i 7o"/>
    <route id="46" edges="6i 7o"/>
    <route id="47" edges="7i 6o"/>
    <route id="48" edges="2i 1o 5o"/>
    <route id="49" edges="3i 4o"/>
    <route id="50" edges="5i 1i 2o"/>
    <route id="51" edges="7i 6o"/>
    <route id="52" edges="5i 1i 2o"/>
    <route id="53" edges="3i 4o"/>
    <route id="54" edges="6i 7o"/>
    <route id="55" edges="2i 1o 5o"/>
    <route id="56" edges="3i 4o"/>
    <route id="57" edges="6i 7o"/>
    <route id="58" edges="6i 7o"/>
    <route id="59" edges="3i 4o"/>
    <route id="60" edges="7i 6o"/>
    <route id="61" edges="6i 7o"/>
    <route id="62" edges="5i 1i 2o"/>
    <route id="63" edges="5i 1i 2o"/>
    <route id="64" edges="4i 3o"/>
    <route id="65" edges="6i 7o"/>
    <route id="66" edges="3i 4o"/>
    <route id="67" edges="2i 1o 5o"/>
    <route id="68" edges="3i 4o"/>
    <route id="69" edges="2i 1o 5o"/>
    <route id="70" edges="4i 3o"/>
    <route id="71" edges="7i 6o"/>
    <route id="72" edges="2i 1o 5o"/>
    <route id="73" edges="7i 6o"/>
    <route id="74" edges="7i 6o"/>
    <route id="75" edges="3i 4o"/>
    <route id="76" edges="2i 1o 5o"/>
    <route id="77" edges="7i 6o"/>
    <route id="78" edges="7i 6o"/>
    <route id="79" edges="3i 4o"/>
    <route id="80" edges="5i 1i 2o"/>
    <route id="81" edges="5i 1i 2o"/>
    <route id="82" edges="2i 1o 5o"/>
    <route id="83" edges="2i 1o 5o"/>
    <route id="84" edges="4i 3o"/>
    <route id="85" edges="4i 3o"/>
    <route id="86" edges="2i 1o 5o"/>
    <route id="87" edges="7i 6o"/>
    <route id="88" edges="4i 3o"/>
    <route id="89" edges="3i 4o"/>
    <route id="90" edges="3i 4o"/>
    <route id="91" edges="6i 7o"/>
    <route id="92" edges="6i 7o"/>
    <route id="93" edges="2i 1o 5o"/>
    <route id="94" edges="5i 1i 2o"/>
    <route id="95" edges="2i 1o 5o"/>
    <route id="96" edges="5i 1i 2o"/>
    <route id="97" edges="2i 1o 5o"/>
    <route id="98" edges="2i 1o 5o"/>
    <route id="99" edges="3i 4o"/>
    <route id="100" edges="3i 4o"/>
    <route id="101" edges="3i 4o"/>
    <route id="102" edges="7i 6o"/>
    <route id="103" edges="7i 6o"/>
    <route id="104" edges="5i 1i 2o"/>
    <route id="105" edges="2i 1o 5o"/>
    <route id="106" edges="4i 3o"/>
    <route id="107" edges="4i 3o"/>
    <route id="108" edges="7i 6o"/>
    <route id="109" edges="5i 1i 2o"/>
    <route id="110" edges="4i 3o"/>
    <route id="111" edges="3i 4o"/>
    <route id="112" edges="2i 1o 5o"/>
    <route id="113" edges="3i 4o"/>
    <route id="114" edges="6i 7o"/>
    <route id="115" edges="6i 7o"/>
    <route id="116" edges="3i 4o"/>
    <route id="117" edges="5i 1i 2o"/>
    <route id="118" edges="7i 6o"/>
    <route id="119" edges="7i 6o"/>
    <route id="120" edges="5i 1i 2o"/>
    <route id="121" edges="4i 3o"/>
    <route id="122" edges="3i 4o"/>
    <route id="123" edges="4i 3o"/>
    <route id="124" edges="2i 1o 5o"/>
    <route id="125" edges="2i 1o 5o"/>
    <route id="126" edges="5i 1i 2o"/>
    <route id="127" edges="4i 3o"/>
    <route id="128" edges="7i 6o"/>
    <route id="129" edges="6i 7o"/>
    <route id="130" edges="7i 6o"/>
    <route id="131" edges="5i 1i 2o"/>
    <route id="132" edges="4i 3o"/>
    <route id="133" edges="5i 1i 2o"/>
    <route id="134" edges="7i 6o"/>
    <route id="135" edges="2i 1o 5o"/>
    <route id="136" edges="4i 3o"/>
    <route id="137" edges="2i 1o 5o"/>
    <route id="138" edges="6i 7o"/>
    <route id="139" edges="3i 4o"/>
    <route id="140" edges="5i 1i 2o"/>
    <route id="141" edges="6i 7o"/>
    <route id="142" edges="7i 6o"/>
    <route id="143" edges="3i 4o"/>
    <route id="144" edges="5i 1i 2o"/>
    <route id="145" edges="2i 1o 5o"/>
    <route id="146" edges="6i 7o"/>
    <route id="147" edges="7i 6o"/>
    <route id="148" edges="2i 1o 5o"/>
    <route id="149" edges="5i 1i 2o"/>
    <route id="150" edges="4i 3o"/>
    <route id="151" edges="5i 1i 2o"/>
    <route id="152" edges="5i 1i 2o"/>
    <route id="153" edges="7i 6o"/>
    <route id="154" edges="2i 1o 5o"/>
    <route id="155" edges="4i 3o"/>
    <route id="156" edges="3i 4o"/>
    <route id="157" edges="5i 1i 2o"/>
    <route id="158" edges="4i 3o"/>
    <route id="159" edges="3i 4o"/>
    <route id="160" edges="7i 6o"/>
    <route id="161" edges="3i 4o"/>
    <route id="162" edges="3i 4o"/>
    <route id="163" edges="6i 7o"/>
    <route id="164" edges="5i 1i 2o"/>
    <route id="165" edges="7i 6o"/>
    <route id="166" edges="3i 4o"/>
    <route id="167" edges="6i 7o"/>
    <route id="168" edges="3i 4o"/>
    <route id="169" edges="3i 4o"/>
    <route id="170" edges="4i 3o"/>
    <route id="171" edges="7i 6o"/>
    <route id="172" edges="2i 1o 5o"/>
    <route id="173" edges="4i 3o"/>
    <route id="174" edges="3i 4o"/>
    <route id="175" edges="7i 6o"/>
    <route id="176" edges="7i 6o"/>
    <route id="177" edges="6i 7o"/>
    <route id="178" edges="4i 3o"/>
    <route id="179" edges="4i 3o"/>
    <route id="180" edges="7i 6o"/>
    <route id="181" edges="6i 7o"/>
    <route id="182" edges="5i 1i 2o"/>
    <route id="183" edges="7i 6o"/>
    <route id="184" edges="6i 7o"/>
    <route id="185" edges="5i 1i 2o"/>
    <route id="186" edges="4i 3o"/>
    <route id="187" edges="5i 1i 2o"/>
    <route id="188" edges="5i 1i 2o"/>
    <route id="189" edges="3i 4o"/>
    <route id="190" edges="2i 1o 5o"/>
    <route id="191" edges="6i 7o"/>
    <route id="192" edges="6i 7o"/>
    <route id="193" edges="3i 4o"/>
    <route id="194" edges="7i 6o"/>
    <route id="195" edges="5i 1i 2o"/>
    <route id="196" edges="5i 1i 2o"/>
    <route id="197" edges="5i 1i 2o"/>
    <route id="198" edges="4i 3o"/>
    <route id="199" edges="3i 4o"/>
    <route id="200" edges="7i 6o"/>
    <route id="201" edges="3i 4o"/>
    <route id="202" edges="7i 6o"/>
    <route id="203" edges="4i 3o"/>
    <route id="204" edges="3i 4o"/>
    <route id="205" edges="3i 4o"/>
    <route id="206" edges="3i 4o"/>
    <route id="207" edges="4i 3o"/>
    <route id="208" edges="3i 4o"/>
    <route id="209" edges="6i 7o"/>
    <route id="210" edges="3i 4o"/>
    <route id="211" edges="6i 7o"/>
    <route id="212" edges="6i 7o"/>
    <route id="213" edges="2i 1o 5o"/>
    <route id="214" edges="4i 3o"/>
    <route id="215" edges="6i 7o"/>
    <route id="216" edges="4i 3o"/>
    <route id="217" edges="4i 3o"/>
    <route id="218" edges="3i 4o"/>
    <route id="219" edges="3i 4o"/>
    <route id="220" edges="2i 1o 5o"/>
    <route id="221" edges="7i 6o"/>
    <route id="222" edges="7i 6o"/>
    <route id="223" edges="6i 7o"/>
    <route id="224" edges="6i 7o"/>
    <route id="225" edges="7i 6o"/>
    <route id="226" edges="6i 7o"/>
    <route id="227" edges="6i 7o"/>
    <route id="228" edges="3i 4o"/>
    <route id="229" edges="2i 1o 5o"/>
    <route id="230" edges="6i 7o"/>
    <route id="231" edges="6i 7o"/>
    <route id="232" edges="4i 3o"/>
    <route id="233" edges="6i 7o"/>
    <route id="234" edges="3i 4o"/>
    <route id="235" edges="3i 4o"/>
    <route id="236" edges="7i 6o"/>
    <route id="237" edges="6i 7o"/>
    <route id="238" edges="3i 4o"/>
    <route id="239" edges="4i 3o"/>
    <route id="240" edges="7i 6o"/>
    <route id="241" edges="7i 6o"/>
    <route id="242" edges="2i 1o 5o"/>
    <route id="243" edges="2i 1o 5o"/>
    <route id="244" edges="7i 6o"/>
    <route id="245" edges="2i 1o 5o"/>
    <route id="246" edges="3i 4o"/>
    <route id="247" edges="2i 1o 5o"/>
    <route id="248" edges="3i 4o"/>
    <route id="249" edges="3i 4o"/>
    <route id="250" edges="6i 7o"/>
    <route id="251" edges="3i 4o"/>
    <route id="252" edges="3i 4o"/>
    <route id="253" edges="2i 1o 5o"/>
    <route id="254" edges="2i 1o 5o"/>
    <route id="255" edges="5i 1i 2o"/>
    <route id="256" edges="6i 7o"/>
    <route id="257" edges="4i 3o"/>
    <route id="258" edges="6i 7o"/>
    <route id="259" edges="3i 4o"/>
    <route id="260" edges="4i 3o"/>
    <route id="261" edges="4i 3o"/>
    <route id="262" edges="2i 1o 5o"/>
    <route id="263" edges="2i 1o 5o"/>
    <route id="264" edges="5i 1i 2o"/>
    <route id="265" edges="2i 1o 5o"/>
    <route id="266" edges="7i 6o"/>
    <route id="267" edges="4i 3o"/>
    <route id="268" edges="2i 1o 5o"/>
    <route id="269" edges="5i 1i 2o"/>
    <route id="270" edges="5i 1i 2o"/>
    <route id="271" edges="5i 1i 2o"/>
    <route id="272" edges="2i 1o 5o"/>
    <route id="273" edges="5i 1i 2o"/>
    <route id="274" edges="6i 7o"/>
    <route id="275" edges="5i 1i 2o"/>
    <route id="276" edges="3i 4o"/>
    <route id="277" edges="6i 7o"/>
    <route id="278" edges="6i 7o"/>
    <route id="279" edges="4i 3o"/>
    <route id="280" edges="5i 1i 2o"/>
    <route id="281" edges="7i 6o"/>
    <route id="282" edges="5i 1i 2o"/>
    <route id="283" edges="5i 1i 2o"/>
    <route id="284" edges="3i 4o"/>
    <route id="285" edges="6i 7o"/>
    <route id="286" edges="3i 4o"/>
    <route id="287" edges="7i 6o"/>
    <route id="288" edges="6i 7o"/>
    <route id="289" edges="5i 1i 2o"/>
    <route id="290" edges="5i 1i 2o"/>
    <route id="291" edges="2i 1o 5o"/>
    <route id="292" edges="3i 4o"/>
    <route id="293" edges="7i 6o"/>
    <route id="294" edges="3i 4o"/>
    <route id="295" edges="2i 1o 5o"/>
    <route id="296" edges="7i 6o"/>
    <route id="297" edges="3i 4o"/>
    <route id="298" edges="6i 7o"/>
    <route id="299" edges="3i 4o"/>
    <route id="300" edges="2i 1o 5o"/>
    <route id="301" edges="5i 1i 2o"/>
    <route id="302" edges="4i 3o"/>
    <route id="303" edges="6i 7o"/>
    <route id="304" edges="6i 7o"/>
    <route id="305" edges="6i 7o"/>
    <route id="306" edges="6i 7o"/>
    <route id="307" edges="5i 1i 2o"/>
    <route id="308" edges="5i 1i 2o"/>
    <route id="309" edges="5i 1i 2o"/>
    <route id="310" edges="4i 3o"/>
    <route id="311" edges="6i 7o"/>
    <route id="312" edges="5i 1i 2o"/>
    <route id="313" edges="7i 6o"/>
    <route id="314" edges="7i 6o"/>
    <route id="315" edges="4i 3o"/>
    <route id="316" edges="3i 4o"/>
    <route id="317" edges="3i 4o"/>
    <route id="318" edges="3i 4o"/>
    <route id="319" edges="4i 3o"/>
    <route id="320" edges="4i 3o"/>
    <route id="321" edges="4i 3o"/>
    <route id="322" edges="6i 7o"/>
    <route id="323" edges="2i 1o 5o"/>
    <route id="324" edges="5i 1i 2o"/>
    <route id="325" edges="6i 7o"/>
    <route id="326" edges="7i 6o"/>
    <route id="327" edges="6i 7o"/>
    <route id="328" edges="4i 3o"/>
    <route id="329" edges="4i 3o"/>
    <route id="330" edges="5i 1i 2o"/>
    <route id="331" edges="3i 4o"/>
    <route id="332" edges="7i 6o"/>
    <route id="333" edges="4i 3o"/>
    <route id="334" edges="3i 4o"/>
    <route id="335" edges="2i 1o 5o"/>
    <route id="336" edges="3i 4o"/>
    <route id="337" edges="7i 6o"/>
    <route id="338" edges="6i 7o"/>
    <route id="339" edges="5i 1i 2o"/>
    <route id="340" edges="3i 4o"/>
    <route id="341" edges="4i 3o"/>
    <route id="342" edges="2i 1o 5o"/>
    <route id="343" edges="3i 4o"/>
    <route id="344" edges="5i 1i 2o"/>
    <route id="345" edges="7i 6o"/>
    <route id="346" edges="7i 6o"/>
    <route id="347" edges="5i 1i 2o"/>
    <route id="348" edges="6i 7o"/>
    <route id="349" edges="7i 6o"/>
    <route id="350" edges="5i 1i 2o"/>
    <route id="351" edges="7i 6o"/>
    <route id="352" edges="4i 3o"/>
    <route id="353" edges="7i 6o"/>
    <route id="354" edges="3i 4o"/>
    <route id="355" edges="3i 4o"/>
    <route id="356" edges="7i 6o"/>
    <route id="357" edges="6i 7o"/>
    <route id="358" edges="2i 1o 5o"/>

    <vehicle id="1_14" route="1" depart="14" />
    <vehicle id="2_23" route="2" depart="23" />
    <vehicle id="3_42" route="3" depart="42" />
    <vehicle id="4_60" route="4" depart="60" />
    <vehicle id="5_66" route="5" depart="66" />
    <vehicle id="6_72" route="6" depart="72" />
    <vehicle id="7_90" route="7" depart="90" />
    <vehicle id="8_91" route="8" depart="91" />
    <vehicle id="9_95" route="9" depart="95" />
    <vehicle id="10_108" route="10" depart="108" />
    <vehicle id="11_112" route="11" depart="112" />
    <vehicle id="12_113" route="12" depart="113" />
    <vehicle id="13_116" route="13" depart="116" />
    <vehicle id="14_119" route="14" depart="119" />
    <vehicle id="15_125" route="15" depart="125" />
    <vehicle id="16_136" route="16" depart="136" />
    <vehicle id="17_154" route="17" depart="154" />
    <vehicle id="18_159" route="18" depart="159" />
    <vehicle id="19_161" route="19" depart="161" />
    <vehicle id="20_175" route="20" depart="175" />
    <vehicle id="21_177" route="21" depart="177" />
    <vehicle id="22_184" route="22" depart="184" />
    <vehicle id="23_197" route="23" depart="197" />
    <vehicle id="24_198" route="24" depart="198" />
    <vehicle id="25_201" route="25" depart="201" />
    <vehicle id="26_205" route="26" depart="205" />
    <vehicle id="27_211" route="27" depart="211" />
    <vehicle id="28_223" route="28" depart="223" />
    <vehicle id="29_227" route="29" depart="227" />
    <vehicle id="30_229" route="30" depart="229" />
    <vehicle id="31_273" route="31" depart="273" />
    <vehicle id="32_277" route="32" depart="277" />
    <vehicle id="33_279" route="33" depart="279" />
    <vehicle id="34_287" route="34" depart="287" />
    <vehicle id="35_299" route="35" depart="299" />
    <vehicle id="36_317" route="36" depart="317" />
    <vehicle id="37_325" route="37" depart="325" />
    <vehicle id="38_330" route="38" depart="330" />
    <vehicle id="39_338" route="39" depart="338" />
    <vehicle id="40_340" route="40" depart="340" />
    <vehicle id="41_344" route="41" depart="344" />
    <vehicle id="42_357" route="42" depart="357" />
    <vehicle id="43_360" route="43" depart="360" />
    <vehicle id="44_363" route="44" depart="363" />
    <vehicle id="45_364" route="45" depart="364" />
    <vehicle id="46_383" route="46" depart="383" />
    <vehicle id="47_404" route="47" depart="404" />
    <vehicle id="48_420" route="48" depart="420" />
    <vehicle id="49_421" route="49" depart="421" />
    <vehicle id="50_441" route="50" depart="441" />
    <vehicle id="51_471" route="51" depart="471" />
    <vehicle id="52_489" route="52" depart="489" />
    <vehicle id="53_506" route="53" depart="506" />
    <vehicle id="54_514" route="54" depart="514" />
    <vehicle id="55_531" route="55" depart="531" />
    <vehicle id="56_537" route="56" depart="537" />
    <vehicle id="57_551" route="57" depart="551" />
    <vehicle id="58_594" route="58" depart="594" />
    <vehicle id="59_625" route="59" depart="625" />
    <vehicle id="60_631" route="60" depart="631" />
    <vehicle id="61_633" route="61" depart="633" />
    <vehicle id="62_639" route="62" depart="639" />
    <vehicle id="63_653" route="63" depart="653" />
    <vehicle id="64_660" route="64" depart="660" />
    <vehicle id="65_665" route="65" depart="665" />
    <vehicle id="66_672" route="66" depart="672" />
    <vehicle id="67_676" route="67" depart="676" />
    <vehicle id="68_696" route="68" depart="696" />
    <vehicle id="69_717" route="69" depart="717" />
    <vehicle id="70_729" route="70" depart="729" />
    <vehicle id="71_737" route="71" depart="737" />
    <vehicle id="72_752" route="72" depart="752" />
    <vehicle id="73_756" route="73" depart="756" />
    <vehicle id="74_763" route="74" depart="763" />
    <vehicle id="75_767" route="75" depart="767" />
    <vehicle id="76_770" route="76" depart="770" />
    <vehicle id="77_778" route="77" depart="778" />
    <vehicle id="78_781" route="78" depart="781" />
    <vehicle id="79_782" route="79" depart="782" />
    <vehicle id="80_788" route="80" depart="788" />
    <vehicle id="81_791" route="81" depart="791" />
    <vehicle id="82_808" route="82" depart="808" />
    <vehicle id="83_816" route="83" depart="816" />
    <vehicle id="84_819" route="84" depart="819" />
    <vehicle id="85_820" route="85" depart="820" />
    <vehicle id="86_832" route="86" depart="832" />
    <vehicle id="87_838" route="87" depart="838" />
    <vehicle id="88_850" route="88" depart="850" />
    <vehicle id="89_852" route="89" depart="852" />
    <vehicle id="90_853" route="90" depart="853" />
    <vehicle id="91_862" route="91" depart="862" />
    <vehicle id="92_865" route="92" depart="865" />
    <vehicle id="93_895" route="93" depart="895" />
    <vehicle id="94_945" route="94" depart="945" />
    <vehicle id="95_949" route="95" depart="949" />
    <vehicle id="96_956" route="96" depart="956" />
    <vehicle id="97_973" route="97" depart="973" />
    <vehicle id="98_979" route="98" depart="979" />
    <vehicle id="99_995" route="99" depart="995" />
    <vehicle id="100_1001" route="100" depart="1001" />
    <vehicle id="101_1004" route="101" depart="1004" />
    <vehicle id="102_1027" route="102" depart="1027" />
    <vehicle id="103_1034" route="103" depart="1034" />
    <vehicle id="104_1059" route="104" depart="1059" />
    <vehicle id="105_1064" route="105" depart="1064" />
    <vehicle id="106_1075" route="106" depart="1075" />
    <vehicle id="107_1094" route="107" depart="1094" />
    <vehicle id="108_1095" route="108" depart="1095" />
    <vehicle id="109_1096" route="109" depart="1096" />
    <vehicle id="110_1115" route="110" depart="1115" />
    <vehicle id="111_1125" route="111" depart="1125" />
    <vehicle id="112_1127" route="112" depart="1127" />
    <vehicle id="113_1131" route="113" depart="1131" />
    <vehicle id="114_1135" route="114" depart="1135" />
    <vehicle id="115_1138" route="115" depart="1138" />
    <vehicle id="116_1165" route="116" depart="1165" />
    <vehicle id="117_1166" route="117" depart="1166" />
    <vehicle id="118_1175" route="118" depart="1175" />
    <vehicle id="119_1189" route="119" depart="1189" />
    <vehicle id="120_1199" route="120" depart="1199" />
    <vehicle id="121_1225" route="121" depart="1225" />
    <vehicle id="122_1232" route="122" depart="1232" />
    <vehicle id="123_1254" route="123" depart="1254" />
    <vehicle id="124_1262" route="124" depart="1262" />
    <vehicle id="125_1280" route="125" depart="1280" />
    <vehicle id="126_1286" route="126" depart="1286" />
    <vehicle id="127_1288" route="127" depart="1288" />
    <vehicle id="128_1292" route="128" depart="1292" />
    <vehicle id="129_1297" route="129" depart="1297" />
    <vehicle id="130_1304" route="130" depart="1304" />
    <vehicle id="131_1305" route="131" depart="1305" />
    <vehicle id="132_1309" route="132" depart="1309" />
    <vehicle id="133_1311" route="133" depart="1311" />
    <vehicle id="134_1339" route="134" depart="1339" />
    <vehicle id="135_1341" route="135" depart="1341" />
    <vehicle id="136_1355" route="136" depart="1355" />
    <vehicle id="137_1357" route="137" depart="1357" />
    <vehicle id="138_1374" route="138" depart="1374" />
    <vehicle id="139_1380" route="139" depart="1380" />
    <vehicle id="140_1383" route="140" depart="1383" />
    <vehicle id="141_1400" route="141" depart="1400" />
    <vehicle id="142_1403" route="142" depart="1403" />
    <vehicle id="143_1404" route="143" depart="1404" />
    <vehicle id="144_1418" route="144" depart="1418" />
    <vehicle id="145_1438" route="145" depart="1438" />
    <vehicle id="146_1439" route="146" depart="1439" />
    <vehicle id="147_1443" route="147" depart="1443" />
    <vehicle id="148_1450" route="148" depart="1450" />
    <vehicle id="149_1468" route="149" depart="1468" />
    <vehicle id="150_1474" route="150" depart="1474" />
    <vehicle id="151_1477" route="151" depart="1477" />
    <vehicle id="152_1479" route="152" depart="1479" />
    <vehicle id="153_1481" route="153" depart="1481" />
    <vehicle id="154_1508" route="154" depart="1508" />
    <vehicle id="155_1551" route="155" depart="1551" />
    <vehicle id="156_1573" route="156" depart="1573" />
    <vehicle id="157_1577" route="157" depart="1577" />
    <vehicle id="158_1584" route="158" depart="1584" />
    <vehicle id="159_1598" route="159" depart="1598" />
    <vehicle id="160_1603" route="160" depart="1603" />
    <vehicle id="161_1612" route="161" depart="1612" />
    <vehicle id="162_1625" route="162" depart="1625" />
    <vehicle id="163_1635" route="163" depart="1635" />
    <vehicle id="164_1636" route="164" depart="1636" />
    <vehicle id="165_1647" route="165" depart="1647" />
    <vehicle id="166_1662" route="166" depart="1662" />
    <vehicle id="167_1663" route="167" depart="1663" />
    <vehicle id="168_1667" route="168" depart="1667" />
    <vehicle id="169_1673" route="169" depart="1673" />
    <vehicle id="170_1689" route="170" depart="1689" />
    <vehicle id="171_1707" route="171" depart="1707" />
    <vehicle id="172_1726" route="172" depart="1726" />
    <vehicle id="173_1733" route="173" depart="1733" />
    <vehicle id="174_1743" route="174" depart="1743" />
    <vehicle id="175_1768" route="175" depart="1768" />
    <vehicle id="176_1776" route="176" depart="1776" />
    <vehicle id="177_1778" route="177" depart="1778" />
    <vehicle id="178_1805" route="178" depart="1805" />
    <vehicle id="179_1837" route="179" depart="1837" />
    <vehicle id="180_1844" route="180" depart="1844" />
    <vehicle id="181_1861" route="181" depart="1861" />
    <vehicle id="182_1868" route="182" depart="1868" />
    <vehicle id="183_1870" route="183" depart="1870" />
    <vehicle id="184_1878" route="184" depart="1878" />
    <vehicle id="185_1881" route="185" depart="1881" />
    <vehicle id="186_1894" route="186" depart="1894" />
    <vehicle id="187_1898" route="187" depart="1898" />
    <vehicle id="188_1911" route="188" depart="1911" />
    <vehicle id="189_1920" route="189" depart="1920" />
    <vehicle id="190_1922" route="190" depart="1922" />
    <vehicle id="191_1926" route="191" depart="1926" />
    <vehicle id="192_1929" route="192" depart="1929" />
    <vehicle id="193_1951" route="193" depart="1951" />
    <vehicle id="194_1958" route="194" depart="1958" />
    <vehicle id="195_1966" route="195" depart="1966" />
    <vehicle id="196_1990" route="196" depart="1990" />
    <vehicle id="197_1994" route="197" depart="1994" />
    <vehicle id="198_1996" route="198" depart="1996" />
    <vehicle id="199_1998" route="199" depart="1998" />
    <vehicle id="200_2001" route="200" depart="2001" />
    <vehicle id="201_2010" route="201" depart="2010" />
    <vehicle id="202_2011" route="202" depart="2011" />
    <vehicle id="203_2013" route="203" depart="2013" />
    <vehicle id="204_2016" route="204" depart="2016" />
    <vehicle id="205_2024" route="205" depart="2024" />
    <vehicle id="206_2053" route="206" depart="2053" />
    <vehicle id="207_2077" route="207" depart="2077" />
    <vehicle id="208_2092" route="208" depart="2092" />
    <vehicle id="209_2095" route="209" depart="2095" />
    <vehicle id="210_2099" route="210" depart="2099" />
    <vehicle id="211_2102" route="211" depart="2102" />
    <vehicle id="212_2106" route="212" depart="2106" />
    <vehicle id="213_2126" route="213" depart="2126" />
    <vehicle id="214_2129" route="214" depart="2129" />
    <vehicle id="215_2135" route="215" depart="2135" />
    <vehicle id="216_2137" route="216" depart="2137" />
    <vehicle id="217_2142" route="217" depart="2142" />
    <vehicle id="218_2147" route="218" depart="2147" />
    <vehicle id="219_2151" route="219" depart="2151" />
    <vehicle id="220_2186" route="220" depart="2186" />
    <vehicle id="221_2204" route="221" depart="2204" />
    <vehicle id="222_2222" route="222" depart="2222" />
    <vehicle id="223_2228" route="223" depart="2228" />
    <vehicle id="224_2243" route="224" depart="2243" />
    <vehicle id="225_2245" route="225" depart="2245" />
    <vehicle id="226_2254" route="226" depart="2254" />
    <vehicle id="227_2262" route="227" depart="2262" />
    <vehicle id="228_2274" route="228" depart="2274" />
    <vehicle id="229_2284" route="229" depart="2284" />
    <vehicle id="230_2286" route="230" depart="2286" />
    <vehicle id="231_2291" route="231" depart="2291" />
    <vehicle id="232_2306" route="232" depart="2306" />
    <vehicle id="233_2315" route="233" depart="2315" />
    <vehicle id="234_2327" route="234" depart="2327" />
    <vehicle id="235_2336" route="235" depart="2336" />
    <vehicle id="236_2337" route="236" depart="2337" />
    <vehicle id="237_2342" route="237" depart="2342" />
    <vehicle id="238_2348" route="238" depart="2348" />
    <vehicle id="239_2354" route="239" depart="2354" />
    <vehicle id="240_2373" route="240" depart="2373" />
    <vehicle id="241_2376" route="241" depart="2376" />
    <vehicle id="242_2379" route="242" depart="2379" />
    <vehicle id="243_2387" route="243" depart="2387" />
    <vehicle id="244_2392" route="244" depart="2392" />
    <vehicle id="245_2393" route="245" depart="2393" />
    <vehicle id="246_2398" route="246" depart="2398" />
    <vehicle id="247_2412" route="247" depart="2412" />
    <vehicle id="248_2415" route="248" depart="2415" />
    <vehicle id="249_2417" route="249" depart="2417" />
    <vehicle id="250_2421" route="250" depart="2421" />
    <vehicle id="251_2444" route="251" depart="2444" />
    <vehicle id="252_2457" route="252" depart="2457" />
    <vehicle id="253_2469" route="253" depart="2469" />
    <vehicle id="254_2490" route="254" depart="2490" />
    <vehicle id="255_2496" route="255" depart="2496" />
    <vehicle id="256_2501" route="256" depart="2501" />
    <vehicle id="257_2505" route="257" depart="2505" />
    <vehicle id="258_2510" route="258" depart="2510" />
    <vehicle id="259_2511" route="259" depart="2511" />
    <vehicle id="260_2533" route="260" depart="2533" />
    <vehicle id="261_2539" route="261" depart="2539" />
    <vehicle id="262_2555" route="262" depart="2555" />
    <vehicle id="263_2562" route="263" depart="2562" />
    <vehicle id="264_2575" route="264" depart="2575" />
    <vehicle id="265_2601" route="265" depart="2601" />
    <vehicle id="266_2605" route="266" depart="2605" />
    <vehicle id="267_2622" route="267" depart="2622" />
    <vehicle id="268_2623" route="268" depart="2623" />
    <vehicle id="269_2625" route="269" depart="2625" />
    <vehicle id="270_2635" route="270" depart="2635" />
    <vehicle id="271_2636" route="271" depart="2636" />
    <vehicle id="272_2668" route="272" depart="2668" />
    <vehicle id="273_2673" route="273" depart="2673" />
    <vehicle id="274_2680" route="274" depart="2680" />
    <vehicle id="275_2684" route="275" depart="2684" />
    <vehicle id="276_2709" route="276" depart="2709" />
    <vehicle id="277_2716" route="277" depart="2716" />
    <vehicle id="278_2720" route="278" depart="2720" />
    <vehicle id="279_2721" route="279" depart="2721" />
    <vehicle id="280_2722" route="280" depart="2722" />
    <vehicle id="281_2723" route="281" depart="2723" />
    <vehicle id="282_2727" route="282" depart="2727" />
    <vehicle id="283_2732" route="283" depart="2732" />
    <vehicle id="284_2737" route="284" depart="2737" />
    <vehicle id="285_2741" route="285" depart="2741" />
    <vehicle id="286_2763" route="286" depart="2763" />
    <vehicle id="287_2773" route="287" depart="2773" />
    <vehicle id="288_2775" route="288" depart="2775" />
    <vehicle id="289_2800" route="289" depart="2800" />
    <vehicle id="290_2802" route="290" depart="2802" />
    <vehicle id="291_2807" route="291" depart="2807" />
    <vehicle id="292_2811" route="292" depart="2811" />
    <vehicle id="293_2813" route="293" depart="2813" />
    <vehicle id="294_2828" route="294" depart="2828" />
    <vehicle id="295_2842" route="295" depart="2842" />
    <vehicle id="296_2847" route="296" depart="2847" />
    <vehicle id="297_2857" route="297" depart="2857" />
    <vehicle id="298_2859" route="298" depart="2859" />
    <vehicle id="299_2875" route="299" depart="2875" />
    <vehicle id="300_2879" route="300" depart="2879" />
    <vehicle id="301_2880" route="301" depart="2880" />
    <vehicle id="302_2894" route="302" depart="2894" />
    <vehicle id="303_2896" route="303" depart="2896" />
    <vehicle id="304_2911" route="304" depart="2911" />
    <vehicle id="305_2923" route="305" depart="2923" />
    <vehicle id="306_2938" route="306" depart="2938" />
    <vehicle id="307_2951" route="307" depart="2951" />
    <vehicle id="308_2972" route="308" depart="2972" />