<routes>

    <route id="1" edges="3i 4o"/>
    <route id="2" edges="3i 4o"/>
    <route id="3" edges="5i 1i 2o"/>
    <route id="4" edges="5i 1i 2o"/>
    <route id="5" edges="4i 3o"/>
    <route id="6" edges="3i 4o"/>
    <route id="7" edges="6i 7o"/>
    <route id="8" edges="6i 7o"/>
    <route id="9" edges="5i 1i 2o"/>
    <route id="10" edges="2i 1o 5o"/>
    <route id="11" edges="6i 7o"/>
    <route id="12" edges="4i 3o"/>
    <route id="13" edges="2i 1o 5o"/>
    <route id="14" edges="6i 7o"/>
    <route id="15" edges="7i 6o"/>
    <route id="16" edges="5i 1i 2o"/>
    <route id="17" edges="7i 6o"/>
    <route id="18" edges="6i 7o"/>
    <route id="19" edges="4i 3o"/>
    <route id="20" edges="2i 1o 5o"/>
    <route id="21" edges="2i 1o 5o"/>
    <route id="22" edges="2i 1o 5o"/>
    <route id="23" edges="4i 3o"/>
    <route id="24" edges="4i 3o"/>
    <route id="25" edges="7i 6o"/>
    <route id="26" edges="6i 7o"/>
    <route id="27" edges="7i 6o"/>
    <route id="28" edges="4i 3o"/>
    <route id="29" edges="5i 1i 2o"/>
    <route id="30" edges="2i 1o 5o"/>
    <route id="31" edges="6i 7o"/>
    <route id="32" edges="4i 3o"/>
    <route id="33" edges="2i 1o 5o"/>
    <route id="34" edges="5i 1i 2o"/>
    <route id="35" edges="6i 7o"/>
    <route id="36" edges="6i 7o"/>
    <route id="37" edges="2i 1o 5o"/>
    <route id="38" edges="5i 1i 2o"/>
    <route id="39" edges="3i 4o"/>
    <route id="40" edges="3i 4o"/>
    <route id="41" edges="6i 7o"/>
    <route id="42" edges="6i 7o"/>
    <route id="43" edges="6i 7o"/>
    <route id="44" edges="2i 1o 5o"/>
    <route id="45" edges="3i 4o"/>
    <route id="46" edges="2i 1o 5o"/>
    <route id="47" edges="7i 6o"/>
    <route id="48" edges="5i 1i 2o"/>
    <route id="49" edges="5i 1i 2o"/>
    <route id="50" edges="6i 7o"/>
    <route id="51" edges="5i 1i 2o"/>
    <route id="52" edges="7i 6o"/>
    <route id="53" edges="5i 1i 2o"/>
    <route id="54" edges="5i 1i 2o"/>
    <route id="55" edges="7i 6o"/>
    <route id="56" edges="7i 6o"/>
    <route id="57" edges="3i 4o"/>
    <route id="58" edges="2i 1o 5o"/>
    <route id="59" edges="6i 7o"/>
    <route id="60" edges="2i 1o 5o"/>
    <route id="61" edges="6i 7o"/>
    <route id="62" edges="6i 7o"/>
    <route id="63" edges="6i 7o"/>
    <route id="64" edges="2i 1o 5o"/>
    <route id="65" edges="5i 1i 2o"/>
    <route id="66" edges="7i 6o"/>
    <route id="67" edges="2i 1o 5o"/>
    <route id="68" edges="6i 7o"/>
    <route id="69" edges="3i 4o"/>
    <route id="70" edges="2i 1o 5o"/>
    <route id="71" edges="2i 1o 5o"/>
    <route id="72" edges="5i 1i 2o"/>
    <route id="73" edges="5i 1i 2o"/>
    <route id="74" edges="5i 1i 2o"/>
    <route id="75" edges="4i 3o"/>
    <route id="76" edges="5i 1i 2o"/>
    <route id="77" edges="3i 4o"/>
    <route id="78" edges="7i 6o"/>
    <route id="79" edges="7i 6o"/>
    <route id="80" edges="6i 7o"/>
    <route id="81" edges="4i 3o"/>
    <route id="82" edges="4i 3o"/>
    <route id="83" edges="3i 4o"/>
    <route id="84" edges="4i 3o"/>
    <route id="85" edges="6i 7o"/>
    <route id="86" edges="3i 4o"/>
    <route id="87" edges="3i 4o"/>
    <route id="88" edges="7i 6o"/>
    <route id="89" edges="3i 4o"/>
    <route id="90" edges="5i 1i 2o"/>
    <route id="91" edges="5i 1i 2o"/>
    <route id="92" edges="5i 1i 2o"/>
    <route id="93" edges="7i 6o"/>
    <route id="94" edges="3i 4o"/>
    <route id="95" edges="6i 7o"/>
    <route id="96" edges="3i 4o"/>
    <route id="97" edges="4i 3o"/>
    <route id="98" edges="7i 6o"/>
    <route id="99" edges="4i 3o"/>
    <route id="100" edges="7i 6o"/>
    <route id="101" edges="6i 7o"/>
    <route id="102" edges="2i 1o 5o"/>
    <route id="103" edges="3i 4o"/>
    <route id="104" edges="5i 1i 2o"/>
    <route id="105" edges="6i 7o"/>
    <route id="106" edges="3i 4o"/>
    <route id="107" edges="7i 6o"/>
    <route id="108" edges="3i 4o"/>
    <route id="109" edges="5i 1i 2o"/>
    <route id="110" edges="7i 6o"/>
    <route id="111" edges="5i 1i 2o"/>
    <route id="112" edges="2i 1o 5o"/>
    <route id="113" edges="7i 6o"/>
    <route id="114" edges="5i 1i 2o"/>
    <route id="115" edges="3i 4o"/>
    <route id="116" edges="6i 7o"/>
    <route id="117" edges="7i 6o"/>
    <route id="118" edges="3i 4o"/>
    <route id="119" edges="6i 7o"/>
    <route id="120" edges="7i 6o"/>
    <route id="121" edges="6i 7o"/>
    <route id="122" edges="3i 4o"/>
    <route id="123" edges="3i 4o"/>
    <route id="124" edges="2i 1o 5o"/>
    <route id="125" edges="6i 7o"/>
    <route id="126" edges="4i 3o"/>
    <route id="127" edges="7i 6o"/>
    <route id="128" edges="6i 7o"/>
    <route id="129" edges="6i 7o"/>
    <route id="130" edges="7i 6o"/>
    <route id="131" edges="2i 1o 5o"/>
    <route id="132" edges="6i 7o"/>
    <route id="133" edges="6i 7o"/>
    <route id="134" edges="3i 4o"/>
    <route id="135" edges="2i 1o 5o"/>
    <route id="136" edges="4i 3o"/>
    <route id="137" edges="7i 6o"/>
    <route id="138" edges="6i 7o"/>
    <route id="139" edges="7i 6o"/>
    <route id="140" edges="2i 1o 5o"/>
    <route id="141" edges="2i 1o 5o"/>
    <route id="142" edges="6i 7o"/>
    <route id="143" edges="3i 4o"/>
    <route id="144" edges="2i 1o 5o"/>
    <route id="145" edges="3i 4o"/>
    <route id="146" edges="5i 1i 2o"/>
    <route id="147" edges="2i 1o 5o"/>
    <route id="148" edges="6i 7o"/>
    <route id="149" edges="3i 4o"/>
    <route id="150" edges="5i 1i 2o"/>
    <route id="151" edges="2i 1o 5o"/>
    <route id="152" edges="3i 4o"/>
    <route id="153" edges="2i 1o 5o"/>
    <route id="154" edges="5i 1i 2o"/>
    <route id="155" edges="4i 3o"/>
    <route id="156" edges="2i 1o 5o"/>
    <route id="157" edges="7i 6o"/>
    <route id="158" edges="3i 4o"/>
    <route id="159" edges="6i 7o"/>
    <route id="160" edges="3i 4o"/>
    <route id="161" edges="3i 4o"/>
    <route id="162" edges="2i 1o 5o"/>
    <route id="163" edges="4i 3o"/>
    <route id="164" edges="6i 7o"/>
    <route id="165" edges="7i 6o"/>
    <route id="166" edges="5i 1i 2o"/>
    <route id="167" edges="6i 7o"/>
    <route id="168" edges="5i 1i 2o"/>
    <route id="169" edges="2i 1o 5o"/>
    <route id="170" edges="5i 1i 2o"/>
    <route id="171" edges="3i 4o"/>
    <route id="172" edges="5i 1i 2o"/>
    <route id="173" edges="6i 7o"/>
    <route id="174" edges="7i 6o"/>
    <route id="175" edges="5i 1i 2o"/>
    <route id="176" edges="5i 1i 2o"/>
    <route id="177" edges="6i 7o"/>
    <route id="178" edges="7i 6o"/>
    <route id="179" edges="6i 7o"/>
    <route id="180" edges="5i 1i 2o"/>
    <route id="181" edges="4i 3o"/>
    <route id="182" edges="5i 1i 2o"/>
    <route id="183" edges="6i 7o"/>
    <route id="184" edges="7i 6o"/>
    <route id="185" edges="4i 3o"/>
    <route id="186" edges="2i 1o 5o"/>
    <route id="187" edges="4i 3o"/>
    <route id="188" edges="6i 7o"/>
    <route id="189" edges="4i 3o"/>
    <route id="190" edges="5i 1i 2o"/>
    <route id="191" edges="2i 1o 5o"/>
    <route id="192" edges="5i 1i 2o"/>
    <route id="193" edges="2i 1o 5o"/>
    <route id="194" edges="2i 1o 5o"/>
    <route id="195" edges="2i 1o 5o"/>
    <route id="196" edges="5i 1i 2o"/>
    <route id="197" edges="2i 1o 5o"/>
    <route id="198" edges="4i 3o"/>
    <route id="199" edges="7i 6o"/>
    <route id="200" edges="3i 4o"/>
    <route id="201" edges="6i 7o"/>
    <route id="202" edges="2i 1o 5o"/>
    <route id="203" edges="2i 1o 5o"/>
    <route id="204" edges="3i 4o"/>
    <route id="205" edges="6i 7o"/>
    <route id="206" edges="6i 7o"/>
    <route id="207" edges="5i 1i 2o"/>
    <route id="208" edges="5i 1i 2o"/>
    <route id="209" edges="3i 4o"/>
    <route id="210" edges="3i 4o"/>
    <route id="211" edges="4i 3o"/>
    <route id="212" edges="4i 3o"/>
    <route id="213" edges="6i 7o"/>
    <route id="214" edges="4i 3o"/>
    <route id="215" edges="5i 1i 2o"/>
    <route id="216" edges="6i 7o"/>
    <route id="217" edges="4i 3o"/>
    <route id="218" edges="7i 6o"/>
    <route id="219" edges="7i 6o"/>
    <route id="220" edges="7i 6o"/>
    <route id="221" edges="5i 1i 2o"/>
    <route id="222" edges="2i 1o 5o"/>
    <route id="223" edges="5i 1i 2o"/>
    <route id="224" edges="2i 1o 5o"/>
    <route id="225" edges="3i 4o"/>
    <route id="226" edges="4i 3o"/>
    <route id="227" edges="7i 6o"/>
    <route id="228" edges="2i 1o 5o"/>
    <route id="229" edges="7i 6o"/>
    <route id="230" edges="2i 1o 5o"/>
    <route id="231" edges="5i 1i 2o"/>
    <route id="232" edges="7i 6o"/>
    <route id="233" edges="5i 1i 2o"/>
    <route id="234" edges="6i 7o"/>
    <route id="235" edges="6i 7o"/>
    <route id="236" edges="4i 3o"/>
    <route id="237" edges="2i 1o 5o"/>
    <route id="238" edges="4i 3o"/>
    <route id="239" edges="3i 4o"/>
    <route id="240" edges="7i 6o"/>
    <route id="241" edges="6i 7o"/>
    <route id="242" edges="3i 4o"/>
    <route id="243" edges="3i 4o"/>
    <route id="244" edges="2i 1o 5o"/>
    <route id="245" edges="4i 3o"/>
    <route id="246" edges="4i 3o"/>
    <route id="247" edges="2i 1o 5o"/>
    <route id="248" edges="2i 1o 5o"/>
    <route id="249" edges="6i 7o"/>
    <route id="250" edges="7i 6o"/>
    <route id="251" edges="7i 6o"/>
    <route id="252" edges="4i 3o"/>
    <route id="253" edges="5i 1i 2o"/>
    <route id="254" edges="5i 1i 2o"/>
    <route id="255" edges="2i 1o 5o"/>
    <route id="256" edges="3i 4o"/>
    <route id="257" edges="4i 3o"/>
    <route id="258" edges="5i 1i 2o"/>
    <route id="259" edges="2i 1o 5o"/>
    <route id="260" edges="3i 4o"/>
    <route id="261" edges="7i 6o"/>
    <route id="262" edges="7i 6o"/>
    <route id="263" edges="7i 6o"/>
    <route id="264" edges="2i 1o 5o"/>
    <route id="265" edges="5i 1i 2o"/>
    <route id="266" edges="2i 1o 5o"/>
    <route id="267" edges="2i 1o 5o"/>
    <route id="268" edges="3i 4o"/>
    <route id="269" edges="6i 7o"/>
    <route id="270" edges="7i 6o"/>
    <route id="271" edges="3i 4o"/>
    <route id="272" edges="7i 6o"/>
    <route id="273" edges="2i 1o 5o"/>
    <route id="274" edges="4i 3o"/>
    <route id="275" edges="6i 7o"/>
    <route id="276" edges="5i 1i 2o"/>
    <route id="277" edges="2i 1o 5o"/>
    <route id="278" edges="5i 1i 2o"/>
    <route id="279" edges="6i 7o"/>
    <route id="280" edges="7i 6o"/>
    <route id="281" edges="5i 1i 2o"/>
    <route id="282" edges="6i 7o"/>
    <route id="283" edges="7i 6o"/>
    <route id="284" edges="4i 3o"/>
    <route id="285" edges="5i 1i 2o"/>
    <route id="286" edges="2i 1o 5o"/>
    <route id="287" edges="7i 6o"/>
    <route id="288" edges="7i 6o"/>
    <route id="289" edges="6i 7o"/>
    <route id="290" edges="7i 6o"/>
    <route id="291" edges="4i 3o"/>
    <route id="292" edges="3i 4o"/>
    <route id="293" edges="6i 7o"/>
    <route id="294" edges="5i 1i 2o"/>
    <route id="295" edges="3i 4o"/>
    <route id="296" edges="2i 1o 5o"/>
    <route id="297" edges="7i 6o"/>
    <route id="298" edges="6i 7o"/>
    <route id="299" edges="6i 7o"/>
    <route id="300" edges="6i 7o"/>
    <route id="301" edges="2i 1o 5o"/>
    <route id="302" edges="3i 4o"/>
    <route id="303" edges="4i 3o"/>
    <route id="304" edges="3i 4o"/>
    <route id="305" edges="3i 4o"/>
    <route id="306" edges="7i 6o"/>
    <route id="307" edges="7i 6o"/>
    <route id="308" edges="5i 1i 2o"/>
    <route id="309" edges="7i 6o"/>
    <route id="310" edges="7i 6o"/>
    <route id="311" edges="6i 7o"/>
    <route id="312" edges="4i 3o"/>
    <route id="313" edges="5i 1i 2o"/>
    <route id="314" edges="4i 3o"/>
    <route id="315" edges="5i 1i 2o"/>
    <route id="316" edges="2i 1o 5o"/>
    <route id="317" edges="4i 3o"/>
    <route id="318" edges="4i 3o"/>
    <route id="319" edges="4i 3o"/>
    <route id="320" edges="5i 1i 2o"/>
    <route id="321" edges="6i 7o"/>
    <route id="322" edges="4i 3o"/>
    <route id="323" edges="3i 4o"/>
    <route id="324" edges="2i 1o 5o"/>
    <route id="325" edges="2i 1o 5o"/>
    <route id="326" edges="2i 1o 5o"/>
    <route id="327" edges="5i 1i 2o"/>
    <route id="328" edges="3i 4o"/>
    <route id="329" edges="5i 1i 2o"/>
    <route id="330" edges="5i 1i 2o"/>
    <route id="331" edges="3i 4o"/>
    <route id="332" edges="2i 1o 5o"/>
    <route id="333" edges="4i 3o"/>
    <route id="334" edges="7i 6o"/>
    <route id="335" edges="6i 7o"/>
    <route id="336" edges="3i 4o"/>
    <route id="337" edges="3i 4o"/>
    <route id="338" edges="6i 7o"/>
    <route id="339" edges="7i 6o"/>
    <route id="340" edges="4i 3o"/>
    <route id="341" edges="4i 3o"/>
    <route id="342" edges="7i 6o"/>
    <route id="343" edges="4i 3o"/>
    <route id="344" edges="7i 6o"/>
    <route id="345" edges="7i 6o"/>
    <route id="346" edges="6i 7o"/>
    <route id="347" edges="3i 4o"/>
    <route id="348" edges="2i 1o 5o"/>
    <route id="349" edges="6i 7o"/>
    <route id="350" edges="6i 7o"/>
    <route id="351" edges="5i 1i 2o"/>
    <route id="352" edges="3i 4o"/>
    <route id="353" edges="5i 1i 2o"/>
    <route id="354" edges="6i 7o"/>

    <vehicle id="1_0" route="1" depart="0" />
    <vehicle id="2_4" route="2" depart="4" />
    <vehicle id="3_19" route="3" depart="19" />
    <vehicle id="4_48" route="4" depart="48" />
    <vehicle id="5_62" route="5" depart="62" />
    <vehicle id="6_67" route="6" depart="67" />
    <vehicle id="7_70" route="7" depart="70" />
    <vehicle id="8_82" route="8" depart="82" />
    <vehicle id="9_92" route="9" depart="92" />
    <vehicle id="10_108" route="10" depart="108" />
    <vehicle id="11_109" route="11" depart="109" />
    <vehicle id="12_113" route="12" depart="113" />
    <vehicle id="13_116" route="13" depart="116" />
    <vehicle id="14_136" route="14" depart="136" />
    <vehicle id="15_139" route="15" depart="139" />
    <vehicle id="16_156" route="16" depart="156" />
    <vehicle id="17_169" route="17" depart="169" />
    <vehicle id="18_174" route="18" depart="174" />
    <vehicle id="19_176" route="19" depart="176" />
    <vehicle id="20_203" route="20" depart="203" />
    <vehicle id="21_204" route="21" depart="204" />
    <vehicle id="22_206" route="22" depart="206" />
    <vehicle id="23_211" route="23" depart="211" />
    <vehicle id="24_214" route="24" depart="214" />
    <vehicle id="25_215" route="25" depart="215" />
    <vehicle id="26_219" route="26" depart="219" />
    <vehicle id="27_242" route="27" depart="242" />
    <vehicle id="28_260" route="28" depart="260" />
    <vehicle id="29_263" route="29" depart="263" />
    <vehicle id="30_265" route="30" depart="265" />
    <vehicle id="31_276" route="31" depart="276" />
    <vehicle id="32_282" route="32" depart="282" />
    <vehicle id="33_319" route="33" depart="319" />
    <vehicle id="34_327" route="34" depart="327" />
    <vehicle id="35_331" route="35" depart="331" />
    <vehicle id="36_332" route="36" depart="332" />
    <vehicle id="37_343" route="37" depart="343" />
    <vehicle id="38_352" route="38" depart="352" />
    <vehicle id="39_375" route="39" depart="375" />
    <vehicle id="40_377" route="40" depart="377" />
    <vehicle id="41_381" route="41" depart="381" />
    <vehicle id="42_387" route="42" depart="387" />
    <vehicle id="43_392" route="43" depart="392" />
    <vehicle id="44_407" route="44" depart="407" />
    <vehicle id="45_409" route="45" depart="409" />
    <vehicle id="46_427" route="46" depart="427" />
    <vehicle id="47_435" route="47" depart="435" />
    <vehicle id="48_445" route="48" depart="445" />
    <vehicle id="49_469" route="49" depart="469" />
    <vehicle id="50_499" route="50" depart="499" />
    <vehicle id="51_513" route="51" depart="513" />
    <vehicle id="52_521" route="52" depart="521" />
    <vehicle id="53_533" route="53" depart="533" />
    <vehicle id="54_538" route="54" depart="538" />
    <vehicle id="55_562" route="55" depart="562" />
    <vehicle id="56_568" route="56" depart="568" />
    <vehicle id="57_578" route="57" depart="578" />
    <vehicle id="58_610" route="58" depart="610" />
    <vehicle id="59_621" route="59" depart="621" />
    <vehicle id="60_626" route="60" depart="626" />
    <vehicle id="61_636" route="61" depart="636" />
    <vehicle id="62_653" route="62" depart="653" />
    <vehicle id="63_662" route="63" depart="662" />
    <vehicle id="64_663" route="64" depart="663" />
    <vehicle id="65_689" route="65" depart="689" />
    <vehicle id="66_696" route="66" depart="696" />
    <vehicle id="67_704" route="67" depart="704" />
    <vehicle id="68_715" route="68" depart="715" />
    <vehicle id="69_721" route="69" depart="721" />
    <vehicle id="70_725" route="70" depart="725" />
    <vehicle id="71_728" route="71" depart="728" />
    <vehicle id="72_730" route="72" depart="730" />
    <vehicle id="73_748" route="73" depart="748" />
    <vehicle id="74_752" route="74" depart="752" />
    <vehicle id="75_753" route="75" depart="753" />
    <vehicle id="76_757" route="76" depart="757" />
    <vehicle id="77_773" route="77" depart="773" />
    <vehicle id="78_779" route="78" depart="779" />
    <vehicle id="79_815" route="79" depart="815" />
    <vehicle id="80_819" route="80" depart="819" />
    <vehicle id="81_835" route="81" depart="835" />
    <vehicle id="82_837" route="82" depart="837" />
    <vehicle id="83_848" route="83" depart="848" />
    <vehicle id="84_850" route="84" depart="850" />
    <vehicle id="85_852" route="85" depart="852" />
    <vehicle id="86_864" route="86" depart="864" />
    <vehicle id="87_891" route="87" depart="891" />
    <vehicle id="88_900" route="88" depart="900" />
    <vehicle id="89_902" route="89" depart="902" />
    <vehicle id="90_929" route="90" depart="929" />
    <vehicle id="91_931" route="91" depart="931" />
    <vehicle id="92_933" route="92" depart="933" />
    <vehicle id="93_960" route="93" depart="960" />
    <vehicle id="94_968" route="94" depart="968" />
    <vehicle id="95_982" route="95" depart="982" />
    <vehicle id="96_985" route="96" depart="985" />
    <vehicle id="97_1002" route="97" depart="1002" />
    <vehicle id="98_1018" route="98" depart="1018" />
    <vehicle id="99_1026" route="99" depart="1026" />
    <vehicle id="100_1033" route="100" depart="1033" />
    <vehicle id="101_1037" route="101" depart="1037" />
    <vehicle id="102_1057" route="102" depart="1057" />
    <vehicle id="103_1096" route="103" depart="1096" />
    <vehicle id="104_1100" route="104" depart="1100" />
    <vehicle id="105_1101" route="105" depart="1101" />
    <vehicle id="106_1105" route="106" depart="1105" />
    <vehicle id="107_1111" route="107" depart="1111" />
    <vehicle id="108_1117" route="108" depart="1117" />
    <vehicle id="109_1130" route="109" depart="1130" />
    <vehicle id="110_1154" route="110" depart="1154" />
    <vehicle id="111_1168" route="111" depart="1168" />
    <vehicle id="112_1169" route="112" depart="1169" />
    <vehicle id="113_1195" route="113" depart="1195" />
    <vehicle id="114_1211" route="114" depart="1211" />
    <vehicle id="115_1222" route="115" depart="1222" />
    <vehicle id="116_1226" route="116" depart="1226" />
    <vehicle id="117_1237" route="117" depart="1237" />
    <vehicle id="118_1242" route="118" depart="1242" />
    <vehicle id="119_1249" route="119" depart="1249" />
    <vehicle id="120_1257" route="120" depart="1257" />
    <vehicle id="121_1270" route="121" depart="1270" />
    <vehicle id="122_1284" route="122" depart="1284" />
    <vehicle id="123_1287" route="123" depart="1287" />
    <vehicle id="124_1291" route="124" depart="1291" />
    <vehicle id="125_1292" route="125" depart="1292" />
    <vehicle id="126_1295" route="126" depart="1295" />
    <vehicle id="127_1325" route="127" depart="1325" />
    <vehicle id="128_1339" route="128" depart="1339" />
    <vehicle id="129_1344" route="129" depart="1344" />
    <vehicle id="130_1405" route="130" depart="1405" />
    <vehicle id="131_1406" route="131" depart="1406" />
    <vehicle id="132_1420" route="132" depart="1420" />
    <vehicle id="133_1425" route="133" depart="1425" />
    <vehicle id="134_1473" route="134" depart="1473" />
    <vehicle id="135_1489" route="135" depart="1489" />
    <vehicle id="136_1494" route="136" depart="1494" />
    <vehicle id="137_1496" route="137" depart="1496" />
    <vehicle id="138_1499" route="138" depart="1499" />
    <vehicle id="139_1511" route="139" depart="1511" />
    <vehicle id="140_1526" route="140" depart="1526" />
    <vehicle id="141_1530" route="141" depart="1530" />
    <vehicle id="142_1545" route="142" depart="1545" />
    <vehicle id="143_1546" route="143" depart="1546" />
    <vehicle id="144_1555" route="144" depart="1555" />
    <vehicle id="145_1580" route="145" depart="1580" />
    <vehicle id="146_1582" route="146" depart="1582" />
    <vehicle id="147_1607" route="147" depart="1607" />
    <vehicle id="148_1611" route="148" depart="1611" />
    <vehicle id="149_1619" route="149" depart="1619" />
    <vehicle id="150_1636" route="150" depart="1636" />
    <vehicle id="151_1648" route="151" depart="1648" />
    <vehicle id="152_1654" route="152" depart="1654" />
    <vehicle id="153_1656" route="153" depart="1656" />
    <vehicle id="154_1669" route="154" depart="1669" />
    <vehicle id="155_1671" route="155" depart="1671" />
    <vehicle id="156_1691" route="156" depart="1691" />
    <vehicle id="157_1711" route="157" depart="1711" />
    <vehicle id="158_1718" route="158" depart="1718" />
    <vehicle id="159_1731" route="159" depart="1731" />
    <vehicle id="160_1732" route="160" depart="1732" />
    <vehicle id="161_1735" route="161" depart="1735" />
    <vehicle id="162_1752" route="162" depart="1752" />
    <vehicle id="163_1775" route="163" depart="1775" />
    <vehicle id="164_1785" route="164" depart="1785" />
    <vehicle id="165_1786" route="165" depart="1786" />
    <vehicle id="166_1788" route="166" depart="1788" />
    <vehicle id="167_1835" route="167" depart="1835" />
    <vehicle id="168_1866" route="168" depart="1866" />
    <vehicle id="169_1875" route="169" depart="1875" />
    <vehicle id="170_1881" route="170" depart="1881" />
    <vehicle id="171_1883" route="171" depart="1883" />
    <vehicle id="172_1898" route="172" depart="1898" />
    <vehicle id="173_1900" route="173" depart="1900" />
    <vehicle id="174_1913" route="174" depart="1913" />
    <vehicle id="175_1933" route="175" depart="1933" />
    <vehicle id="176_1943" route="176" depart="1943" />
    <vehicle id="177_1944" route="177" depart="1944" />
    <vehicle id="178_1945" route="178" depart="1945" />
    <vehicle id="179_1947" route="179" depart="1947" />
    <vehicle id="180_1954" route="180" depart="1954" />
    <vehicle id="181_1966" route="181" depart="1966" />
    <vehicle id="182_1983" route="182" depart="1983" />
    <vehicle id="183_1997" route="183" depart="1997" />
    <vehicle id="184_1998" route="184" depart="1998" />
    <vehicle id="185_2004" route="185" depart="2004" />
    <vehicle id="186_2015" route="186" depart="2015" />
    <vehicle id="187_2017" route="187" depart="2017" />
    <vehicle id="188_2020" route="188" depart="2020" />
    <vehicle id="189_2032" route="189" depart="2032" />
    <vehicle id="190_2033" route="190" depart="2033" />
    <vehicle id="191_2045" route="191" depart="2045" />
    <vehicle id="192_2081" route="192" depart="2081" />
    <vehicle id="193_2090" route="193" depart="2090" />
    <vehicle id="194_2094" route="194" depart="2094" />
    <vehicle id="195_2096" route="195" depart="2096" />
    <vehicle id="196_2110" route="196" depart="2110" />
    <vehicle id="197_2113" route="197" depart="2113" />
    <vehicle id="198_2117" route="198" depart="2117" />
    <vehicle id="199_2119" route="199" depart="2119" />
    <vehicle id="200_2122" route="200" depart="2122" />
    <vehicle id="201_2133" route="201" depart="2133" />
    <vehicle id="202_2136" route="202" depart="2136" />
    <vehicle id="203_2154" route="203" depart="2154" />
    <vehicle id="204_2161" route="204" depart="2161" />
    <vehicle id="205_2167" route="205" depart="2167" />
    <vehicle id="206_2174" route="206" depart="2174" />
    <vehicle id="207_2176" route="207" depart="2176" />
    <vehicle id="208_2178" route="208" depart="2178" />
    <vehicle id="209_2179" route="209" depart="2179" />
    <vehicle id="210_2181" route="210" depart="2181" />
    <vehicle id="211_2184" route="211" depart="2184" />
    <vehicle id="212_2191" route="212" depart="2191" />
    <vehicle id="213_2198" route="213" depart="2198" />
    <vehicle id="214_2209" route="214" depart="2209" />
    <vehicle id="215_2215" route="215" depart="2215" />
    <vehicle id="216_2232" route="216" depart="2232" />
    <vehicle id="217_2233" route="217" depart="2233" />
    <vehicle id="218_2250" route="218" depart="2250" />
    <vehicle id="219_2300" route="219" depart="2300" />
    <vehicle id="220_2301" route="220" depart="2301" />
    <vehicle id="221_2303" route="221" depart="2303" />
    <vehicle id="222_2321" route="222" depart="2321" />
    <vehicle id="223_2341" route="223" depart="2341" />
    <vehicle id="224_2361" route="224" depart="2361" />
    <vehicle id="225_2373" route="225" depart="2373" />
    <vehicle id="226_2379" route="226" depart="2379" />
    <vehicle id="227_2380" route="227" depart="2380" />
    <vehicle id="228_2396" route="228" depart="2396" />
    <vehicle id="229_2399" route="229" depart="2399" />
    <vehicle id="230_2409" route="230" depart="2409" />
    <vehicle id="231_2423" route="231" depart="2423" />
    <vehicle id="232_2425" route="232" depart="2425" />
    <vehicle id="233_2435" route="233" depart="2435" />
    <vehicle id="234_2439" route="234" depart="2439" />
    <vehicle id="235_2447" route="235" depart="2447" />
    <vehicle id="236_2455" route="236" depart="2455" />
    <vehicle id="237_2459" route="237" depart="2459" />
    <vehicle id="238_2475" route="238" depart="2475" />
    <vehicle id="239_2487" route="239" depart="2487" />
    <vehicle id="240_2489" route="240" depart="2489" />
    <vehicle id="241_2492" route="241" depart="2492" />
    <vehicle id="242_2519" route="242" depart="2519" />
    <vehicle id="243_2523" route="243" depart="2523" />
    <vehicle id="244_2533" route="244" depart="2533" />
    <vehicle id="245_2553" route="245" depart="2553" />
    <vehicle id="246_2576" route="246" depart="2576" />
    <vehicle id="247_2577" route="247" depart="2577" />
    <vehicle id="248_2592" route="248" depart="2592" />
    <vehicle id="249_2602" route="249" depart="2602" />
    <vehicle id="250_2621" route="250" depart="2621" />
    <vehicle id="251_2631" route="251" depart="2631" />
    <vehicle id="252_2642" route="252" depart="2642" />
    <vehicle id="253_2676" route="253" depart="2676" />
    <vehicle id="254_2678" route="254" depart="2678" />
    <vehicle id="255_2682" route="255" depart="2682" />
    <vehicle id="256_2684" route="256" depart="2684" />
    <vehicle id="257_2687" route="257" depart="2687" />
    <vehicle id="258_2691" route="258" depart="2691" />
    <vehicle id="259_2699" route="259" depart="2699" />
    <vehicle id="260_2706" route="260" depart="2706" />
    <vehicle id="261_2717" route="261" depart="2717" />
    <vehicle id="262_2723" route="262" depart="2723" />
    <vehicle id="263_2727" route="263" depart="2727" />
    <vehicle id="264_2735" route="264" depart="2735" />
    <vehicle id="265_2743" route="265" depart="2743" />
    <vehicle id="266_2746" route="266" depart="2746" />
    <vehicle id="267_2749" route="267" depart="2749" />
    <vehicle id="268_2752" route="268" depart="2752" />
    <vehicle id="269_2790" route="269" depart="2790" />
    <vehicle id="270_2793" route="270" depart="2793" />
    <vehicle id="271_2798" route="271" depart="2798" />
    <vehicle id="272_2813" route="272" depart="2813" />
    <vehicle id="273_2816" route="273" depart="2816" />
    <vehicle id="274_2819" route="274" depart="2819" />
    <vehicle id="275_2826" route="275" depart="2826" />
    <vehicle id="276_2830" route="276" depart="2830" />
    <vehicle id="277_2846" route="277" depart="2846" />
    <vehicle id="278_2864" route="278" depart="2864" />
    <vehicle id="279_2866" route="279" depart="2866" />
    <vehicle id="280_2869" route="280" depart="2869" />
    <vehicle id="281_2875" route="281" depart="2875" />
    <vehicle id="282_2890" route="282" depart="2890" />
    <vehicle id="283_2898" route="283" depart="2898" />
    <vehicle id="284_2901" route="284" depart="2901" />
    <vehicle id="285_2929" route="285" depart="2929" />
    <vehicle id="286_2930" route="286" depart="2930" />
    <vehicle id="287_2935" route="287" depart="2935" />
    <vehicle id="288_2952" route="288" depart="2952" />
    <vehicle id="289_2954" route="289" depart="2954" />
    <vehicle id="290_2958" route="290" depart="2958" />
    <vehicle id="291_2974" route="291" depart="2974" />
    <vehicle id="292_2980" route="292" depart="2980" />
    <vehicle id="293_2982" route="293" depart="2982" />
    <vehicle id="294_2986" route="294" depart="2986" />
    <vehicle id="295_3016" route="295" depart="3016" />
    <vehicle id="296_3017" route="296" depart="3017" />
    <vehicle id="297_3025" route="297" depart="3025" />
    <vehicle id="298_3042" route="298" depart="3042" />
    <vehicle id="299_3059" route="299" depart="3059" />
    <vehicle id="300_3066" route="300" depart="3066" />
    <vehicle id="301_3077" route="301" depart="3077" />
    <vehicle id="302_3104" route="302" depart="3104" />
    <vehicle id="303_3114" route="303" depart="3114" />
    <vehicle id="304_3115" route="304" depart="3115" />
    <vehicle id="305_3116" route="305" depart="3116" />
    <vehicle id="306_3121" route="306" depart="3121" />
    <vehicle id="307_3142" route="307" depart="3142" />
    <vehicle id="308_3151" route="308" depart="3151" />
    <vehicle id="309_3158" route="309" depart="3158" />
    <vehicle id="310_3173" route="310" depart="3173" />