<routes>

    <route id="1" edges="71 10 04"/>
    <route id="2" edges="61 13 310"/>
    <route id="3" edges="61 13 310"/>
    <route id="4" edges="113 32 28"/>
    <route id="5" edges="82 23 311"/>
    <route id="6" edges="61 13 310"/>
    <route id="7" edges="113 32 28"/>
    <route id="8" edges="61 13 310"/>
    <route id="9" edges="71 10 04"/>
    <route id="10" edges="113 32 28"/>
    <route id="11" edges="50 02 29"/>
    <route id="12" edges="92 20 05"/>
    <route id="13" edges="92 20 05"/>
    <route id="14" edges="40 01 17"/>
    <route id="15" edges="71 10 04"/>
    <route id="16" edges="103 31 16"/>
    <route id="17" edges="82 23 311"/>
    <route id="18" edges="92 20 05"/>
    <route id="19" edges="71 10 04"/>
    <route id="20" edges="113 32 28"/>
    <route id="21" edges="61 13 310"/>
    <route id="22" edges="50 02 29"/>
    <route id="23" edges="82 23 311"/>
    <route id="24" edges="103 31 16"/>
    <route id="25" edges="71 10 04"/>
    <route id="26" edges="103 31 16"/>
    <route id="27" edges="61 13 310"/>
    <route id="28" edges="113 32 28"/>
    <route id="29" edges="61 13 310"/>
    <route id="30" edges="61 13 310"/>
    <route id="31" edges="61 13 310"/>
    <route id="32" edges="113 32 28"/>
    <route id="33" edges="40 01 17"/>
    <route id="34" edges="40 01 17"/>
    <route id="35" edges="40 01 17"/>
    <route id="36" edges="92 20 05"/>
    <route id="37" edges="40 01 17"/>
    <route id="38" edges="82 23 311"/>
    <route id="39" edges="40 01 17"/>
    <route id="40" edges="82 23 311"/>
    <route id="41" edges="61 13 310"/>
    <route id="42" edges="82 23 311"/>
    <route id="43" edges="103 31 16"/>
    <route id="44" edges="40 01 17"/>
    <route id="45" edges="82 23 311"/>
    <route id="46" edges="92 20 05"/>
    <route id="47" edges="103 31 16"/>
    <route id="48" edges="113 32 28"/>
    <route id="49" edges="40 01 17"/>
    <route id="50" edges="113 32 28"/>
    <route id="51" edges="113 32 28"/>
    <route id="52" edges="92 20 05"/>
    <route id="53" edges="113 32 28"/>
    <route id="54" edges="50 02 29"/>
    <route id="55" edges="113 32 28"/>
    <route id="56" edges="92 20 05"/>
    <route id="57" edges="113 32 28"/>
    <route id="58" edges="40 01 17"/>
    <route id="59" edges="82 23 311"/>
    <route id="60" edges="71 10 04"/>
    <route id="61" edges="103 31 16"/>
    <route id="62" edges="50 02 29"/>
    <route id="63" edges="92 20 05"/>
    <route id="64" edges="82 23 311"/>
    <route id="65" edges="113 32 28"/>
    <route id="66" edges="82 23 311"/>
    <route id="67" edges="82 23 311"/>
    <route id="68" edges="113 32 28"/>
    <route id="69" edges="103 31 16"/>
    <route id="70" edges="71 10 04"/>
    <route id="71" edges="92 20 05"/>
    <route id="72" edges="82 23 311"/>
    <route id="73" edges="82 23 311"/>
    <route id="74" edges="61 13 310"/>
    <route id="75" edges="50 02 29"/>
    <route id="76" edges="82 23 311"/>
    <route id="77" edges="82 23 311"/>
    <route id="78" edges="50 02 29"/>
    <route id="79" edges="92 20 05"/>
    <route id="80" edges="40 01 17"/>
    <route id="81" edges="40 01 17"/>
    <route id="82" edges="50 02 29"/>
    <route id="83" edges="113 32 28"/>
    <route id="84" edges="71 10 04"/>
    <route id="85" edges="103 31 16"/>
    <route id="86" edges="113 32 28"/>
    <route id="87" edges="92 20 05"/>
    <route id="88" edges="103 31 16"/>
    <route id="89" edges="92 20 05"/>
    <route id="90" edges="71 10 04"/>
    <route id="91" edges="82 23 311"/>
    <route id="92" edges="92 20 05"/>
    <route id="93" edges="61 13 310"/>
    <route id="94" edges="40 01 17"/>
    <route id="95" edges="71 10 04"/>
    <route id="96" edges="113 32 28"/>
    <route id="97" edges="113 32 28"/>
    <route id="98" edges="103 31 16"/>
    <route id="99" edges="92 20 05"/>
    <route id="100" edges="71 10 04"/>
    <route id="101" edges="71 10 04"/>
    <route id="102" edges="92 20 05"/>
    <route id="103" edges="61 13 310"/>
    <route id="104" edges="103 31 16"/>
    <route id="105" edges="50 02 29"/>
    <route id="106" edges="113 32 28"/>
    <route id="107" edges="50 02 29"/>
    <route id="108" edges="92 20 05"/>
    <route id="109" edges="92 20 05"/>
    <route id="110" edges="103 31 16"/>
    <route id="111" edges="61 13 310"/>
    <route id="112" edges="40 01 17"/>
    <route id="113" edges="40 01 17"/>
    <route id="114" edges="103 31 16"/>
    <route id="115" edges="113 32 28"/>
    <route id="116" edges="103 31 16"/>
    <route id="117" edges="40 01 17"/>
    <route id="118" edges="50 02 29"/>
    <route id="119" edges="40 01 17"/>
    <route id="120" edges="92 20 05"/>
    <route id="121" edges="92 20 05"/>
    <route id="122" edges="113 32 28"/>
    <route id="123" edges="61 13 310"/>
    <route id="124" edges="113 32 28"/>
    <route id="125" edges="50 02 29"/>
    <route id="126" edges="113 32 28"/>
    <route id="127" edges="71 10 04"/>
    <route id="128" edges="92 20 05"/>
    <route id="129" edges="40 01 17"/>
    <route id="130" edges="92 20 05"/>
    <route id="131" edges="92 20 05"/>
    <route id="132" edges="103 31 16"/>
    <route id="133" edges="103 31 16"/>
    <route id="134" edges="113 32 28"/>
    <route id="135" edges="82 23 311"/>
    <route id="136" edges="92 20 05"/>
    <route id="137" edges="50 02 29"/>
    <route id="138" edges="40 01 17"/>
    <route id="139" edges="103 31 16"/>
    <route id="140" edges="92 20 05"/>
    <route id="141" edges="50 02 29"/>
    <route id="142" edges="113 32 28"/>
    <route id="143" edges="61 13 310"/>
    <route id="144" edges="71 10 04"/>
    <route id="145" edges="113 32 28"/>
    <route id="146" edges="71 10 04"/>
    <route id="147" edges="40 01 17"/>
    <route id="148" edges="40 01 17"/>
    <route id="149" edges="61 13 310"/>
    <route id="150" edges="82 23 311"/>
    <route id="151" edges="40 01 17"/>
    <route id="152" edges="82 23 311"/>
    <route id="153" edges="40 01 17"/>
    <route id="154" edges="92 20 05"/>
    <route id="155" edges="103 31 16"/>
    <route id="156" edges="92 20 05"/>
    <route id="157" edges="92 20 05"/>
    <route id="158" edges="82 23 311"/>
    <route id="159" edges="113 32 28"/>
    <route id="160" edges="103 31 16"/>
    <route id="161" edges="82 23 311"/>
    <route id="162" edges="103 31 16"/>
    <route id="163" edges="71 10 04"/>
    <route id="164" edges="61 13 310"/>
    <route id="165" edges="71 10 04"/>
    <route id="166" edges="50 02 29"/>
    <route id="167" edges="103 31 16"/>
    <route id="168" edges="71 10 04"/>
    <route id="169" edges="50 02 29"/>
    <route id="170" edges="92 20 05"/>
    <route id="171" edges="40 01 17"/>
    <route id="172" edges="71 10 04"/>
    <route id="173" edges="61 13 310"/>
    <route id="174" edges="103 31 16"/>
    <route id="175" edges="71 10 04"/>
    <route id="176" edges="103 31 16"/>
    <route id="177" edges="50 02 29"/>
    <route id="178" edges="50 02 29"/>
    <route id="179" edges="50 02 29"/>
    <route id="180" edges="92 20 05"/>
    <route id="181" edges="61 13 310"/>
    <route id="182" edges="50 02 29"/>
    <route id="183" edges="92 20 05"/>
    <route id="184" edges="103 31 16"/>
    <route id="185" edges="92 20 05"/>
    <route id="186" edges="71 10 04"/>
    <route id="187" edges="113 32 28"/>
    <route id="188" edges="92 20 05"/>
    <route id="189" edges="92 20 05"/>

    <vehicle id="1_1" route="1" depart="1" />
    <vehicle id="2_6" route="2" depart="6" />
    <vehicle id="3_9" route="3" depart="9" />
    <vehicle id="4_14" route="4" depart="14" />
    <vehicle id="5_15" route="5" depart="15" />
    <vehicle id="6_16" route="6" depart="16" />
    <vehicle id="7_20" route="7" depart="20" />
    <vehicle id="8_21" route="8" depart="21" />
    <vehicle id="9_23" route="9" depart="23" />
    <vehicle id="10_25" route="10" depart="25" />
    <vehicle id="11_29" route="11" depart="29" />
    <vehicle id="12_34" route="12" depart="34" />
    <vehicle id="13_49" route="13" depart="49" />
    <vehicle id="14_51" route="14" depart="51" />
    <vehicle id="15_52" route="15" depart="52" />
    <vehicle id="16_54" route="16" depart="54" />
    <vehicle id="17_55" route="17" depart="55" />
    <vehicle id="18_57" route="18" depart="57" />
    <vehicle id="19_65" route="19" depart="65" />
    <vehicle id="20_67" route="20" depart="67" />
    <vehicle id="21_70" route="21" depart="70" />
    <vehicle id="22_72" route="22" depart="72" />
    <vehicle id="23_73" route="23" depart="73" />
    <vehicle id="24_74" route="24" depart="74" />
    <vehicle id="25_75" route="25" depart="75" />
    <vehicle id="26_77" route="26" depart="77" />
    <vehicle id="27_79" route="27" depart="79" />
    <vehicle id="28_81" route="28" depart="81" />
    <vehicle id="29_83" route="29" depart="83" />
    <vehicle id="30_88" route="30" depart="88" />
    <vehicle id="31_90" route="31" depart="90" />
    <vehicle id="32_92" route="32" depart="92" />
    <vehicle id="33_94" route="33" depart="94" />
    <vehicle id="34_95" route="34" depart="95" />
    <vehicle id="35_98" route="35" depart="98" />
    <vehicle id="36_99" route="36" depart="99" />
    <vehicle id="37_102" route="37" depart="102" />
    <vehicle id="38_105" route="38" depart="105" />
    <vehicle id="39_108" route="39" depart="108" />
    <vehicle id="40_109" route="40" depart="109" />
    <vehicle id="41_113" route="41" depart="113" />
    <vehicle id="42_118" route="42" depart="118" />
    <vehicle id="43_121" route="43" depart="121" />
    <vehicle id="44_122" route="44" depart="122" />
    <vehicle id="45_124" route="45" depart="124" />
    <vehicle id="46_128" route="46" depart="128" />
    <vehicle id="47_130" route="47" depart="130" />
    <vehicle id="48_132" route="48" depart="132" />
    <vehicle id="49_135" route="49" depart="135" />
    <vehicle id="50_137" route="50" depart="137" />
    <vehicle id="51_138" route="51" depart="138" />
    <vehicle id="52_147" route="52" depart="147" />
    <vehicle id="53_150" route="53" depart="150" />
    <vehicle id="54_151" route="54" depart="151" />
    <vehicle id="55_153" route="55" depart="153" />
    <vehicle id="56_155" route="56" depart="155" />
    <vehicle id="57_158" route="57" depart="158" />
    <vehicle id="58_159" route="58" depart="159" />
    <vehicle id="59_160" route="59" depart="160" />
    <vehicle id="60_166" route="60" depart="166" />
    <vehicle id="61_167" route="61" depart="167" />
    <vehicle id="62_172" route="62" depart="172" />
    <vehicle id="63_173" route="63" depart="173" />
    <vehicle id="64_175" route="64" depart="175" />
    <vehicle id="65_181" route="65" depart="181" />
    <vehicle id="66_185" route="66" depart="185" />
    <vehicle id="67_191" route="67" depart="191" />
    <vehicle id="68_202" route="68" depart="202" />
    <vehicle id="69_203" route="69" depart="203" />
    <vehicle id="70_204" route="70" depart="204" />
    <vehicle id="71_206" route="71" depart="206" />
    <vehicle id="72_210" route="72" depart="210" />
    <vehicle id="73_213" route="73" depart="213" />
    <vehicle id="74_214" route="74" depart="214" />
    <vehicle id="75_217" route="75" depart="217" />
    <vehicle id="76_220" route="76" depart="220" />
    <vehicle id="77_222" route="77" depart="222" />
    <vehicle id="78_223" route="78" depart="223" />
    <vehicle id="79_224" route="79" depart="224" />
    <vehicle id="80_227" route="80" depart="227" />
    <vehicle id="81_229" route="81" depart="229" />
    <vehicle id="82_233" route="82" depart="233" />
    <vehicle id="83_235" route="83" depart="235" />
    <vehicle id="84_236" route="84" depart="236" />
    <vehicle id="85_237" route="85" depart="237" />
    <vehicle id="86_239" route="86" depart="239" />
    <vehicle id="87_243" route="87" depart="243" />
    <vehicle id="88_245" route="88" depart="245" />
    <vehicle id="89_247" route="89" depart="247" />
    <vehicle id="90_249" route="90" depart="249" />
    <vehicle id="91_250" route="91" depart="250" />
    <vehicle id="92_253" route="92" depart="253" />
    <vehicle id="93_254" route="93" depart="254" />
    <vehicle id="94_256" route="94" depart="256" />
    <vehicle id="95_259" route="95" depart="259" />
    <vehicle id="96_261" route="96" depart="261" />
    <vehicle id="97_262" route="97" depart="262" />
    <vehicle id="98_263" route="98" depart="263" />
    <vehicle id="99_265" route="99" depart="265" />
    <vehicle id="100_269" route="100" depart="269" />
    <vehicle id="101_276" route="101" depart="276" />
    <vehicle id="102_278" route="102" depart="278" />
    <vehicle id="103_279" route="103" depart="279" />
    <vehicle id="104_282" route="104" depart="282" />
    <vehicle id="105_290" route="105" depart="290" />
    <vehicle id="106_291" route="106" depart="291" />
    <vehicle id="107_292" route="107" depart="292" />
    <vehicle id="108_294" route="108" depart="294" />
    <vehicle id="109_295" route="109" depart="295" />
    <vehicle id="110_296" route="110" depart="296" />
    <vehicle id="111_299" route="111" depart="299" />
    <vehicle id="112_301" route="112" depart="301" />
    <vehicle id="113_302" route="113" depart="302" />
    <vehicle id="114_305" route="114" depart="305" />
    <vehicle id="115_306" route="115" depart="306" />
    <vehicle id="116_308" route="116" depart="308" />
    <vehicle id="117_310" route="117" depart="310" />
    <vehicle id="118_312" route="118" depart="312" />
    <vehicle id="119_314" route="119" depart="314" />
    <vehicle id="120_321" route="120" depart="321" />
    <vehicle id="121_322" route="121" depart="322" />
    <vehicle id="122_325" route="122" depart="325" />
    <vehicle id="123_329" route="123" depart="329" />
    <vehicle id="124_330" route="124" depart="330" />
    <vehicle id="125_334" route="125" depart="334" />
    <vehicle id="126_345" route="126" depart="345" />
    <vehicle id="127_346" route="127" depart="346" />
    <vehicle id="128_348" route="128" depart="348" />
    <vehicle id="129_351" route="129" depart="351" />
    <vehicle id="130_353" route="130" depart="353" />
    <vehicle id="131_355" route="131" depart="355" />
    <vehicle id="132_357" route="132" depart="357" />
    <vehicle id="133_358" route="133" depart="358" />
    <vehicle id="134_359" route="134" depart="359" />
    <vehicle id="135_360" route="135" depart="360" />
    <vehicle id="136_361" route="136" depart="361" />
    <vehicle id="137_362" route="137" depart="362" />
    <vehicle id="138_363" route="138" depart="363" />
    <vehicle id="139_364" route="139" depart="364" />
    <vehicle id="140_370" route="140" depart="370" />
    <vehicle id="141_372" route="141" depart="372" />
    <vehicle id="142_375" route="142" depart="375" />
    <vehicle id="143_376" route="143" depart="376" />
    <vehicle id="144_378" route="144" depart="378" />
    <vehicle id="145_380" route="145" depart="380" />
    <vehicle id="146_382" route="146" depart="382" />
    <vehicle id="147_383" route="147" depart="383" />
    <vehicle id="148_393" route="148" depart="393" />
    <vehicle id="149_395" route="149" depart="395" />
    <vehicle id="150_400" route="150" depart="400" />
    <vehicle id="151_401" route="151" depart="401" />
    <vehicle id="152_402" route="152" depart="402" />
    <vehicle id="153_403" route="153" depart="403" />
    <vehicle id="154_414" route="154" depart="414" />
    <vehicle id="155_416" route="155" depart="416" />
    <vehicle id="156_418" route="156" depart="418" />
    <vehicle id="157_419" route="157" depart="419" />
    <vehicle id="158_422" route="158" depart="422" />
    <vehicle id="159_423" route="159" depart="423" />
    <vehicle id="160_424" route="160" depart="424" />
    <vehicle id="161_425" route="161" depart="425" />
    <vehicle id="162_427" route="162" depart="427" />
    <vehicle id="163_430" route="163" depart="430" />
    <vehicle id="164_431" route="164" depart="431" />
    <vehicle id="165_438" route="165" depart="438" />
    <vehicle id="166_439" route="166" depart="439" />
    <vehicle id="167_443" route="167" depart="443" />
    <vehicle id="168_445" route="168" depart="445" />
    <vehicle id="169_446" route="169" depart="446" />
    <vehicle id="170_448" route="170" depart="448" />
    <vehicle id="171_452" route="171" depart="452" />
    <vehicle id="172_455" route="172" depart="455" />
    <vehicle id="173_457" route="173" depart="457" />
    <vehicle id="174_458" route="174" depart="458" />
    <vehicle id="175_459" route="175" depart="459" />
    <vehicle id="176_462" route="176" depart="462" />
    <vehicle id="177_465" route="177" depart="465" />
    <vehicle id="178_467" route="178" depart="467" />
    <vehicle id="179_473" route="179" depart="473" />
    <vehicle id="180_474" route="180" depart="474" />
    <vehicle id="181_475" route="181" depart="475" />
    <vehicle id="182_481" route="182" depart="481" />
    <vehicle id="183_485" route="183" depart="485" />
    <vehicle id="184_488" route="184" depart="488" />
    <vehicle id="185_489" route="185" depart="489" />
    <vehicle id="186_493" route="186" depart="493" />
    <vehicle id="187_497" route="187" depart="497" />
    <vehicle id="188_498" route="188" depart="498" />
    <vehicle id="189_499" route="189" depart="499" />

</routes>