<routes>

    <route id="1" edges="71 10 04"/>
    <route id="2" edges="50 02 29"/>
    <route id="3" edges="71 10 04"/>
    <route id="4" edges="50 02 29"/>
    <route id="5" edges="40 01 17"/>
    <route id="6" edges="103 31 16"/>
    <route id="7" edges="82 23 311"/>
    <route id="8" edges="61 13 310"/>
    <route id="9" edges="103 31 16"/>
    <route id="10" edges="113 32 28"/>
    <route id="11" edges="103 31 16"/>
    <route id="12" edges="71 10 04"/>
    <route id="13" edges="113 32 28"/>
    <route id="14" edges="40 01 17"/>
    <route id="15" edges="61 13 310"/>
    <route id="16" edges="71 10 04"/>
    <route id="17" edges="40 01 17"/>
    <route id="18" edges="50 02 29"/>
    <route id="19" edges="92 20 05"/>
    <route id="20" edges="61 13 310"/>
    <route id="21" edges="82 23 311"/>
    <route id="22" edges="71 10 04"/>
    <route id="23" edges="82 23 311"/>
    <route id="24" edges="82 23 311"/>
    <route id="25" edges="61 13 310"/>
    <route id="26" edges="113 32 28"/>
    <route id="27" edges="50 02 29"/>
    <route id="28" edges="61 13 310"/>
    <route id="29" edges="50 02 29"/>
    <route id="30" edges="82 23 311"/>
    <route id="31" edges="113 32 28"/>
    <route id="32" edges="71 10 04"/>
    <route id="33" edges="82 23 311"/>
    <route id="34" edges="82 23 311"/>
    <route id="35" edges="113 32 28"/>
    <route id="36" edges="103 31 16"/>
    <route id="37" edges="71 10 04"/>
    <route id="38" edges="92 20 05"/>
    <route id="39" edges="50 02 29"/>
    <route id="40" edges="92 20 05"/>
    <route id="41" edges="40 01 17"/>
    <route id="42" edges="40 01 17"/>
    <route id="43" edges="40 01 17"/>
    <route id="44" edges="61 13 310"/>
    <route id="45" edges="40 01 17"/>
    <route id="46" edges="113 32 28"/>
    <route id="47" edges="71 10 04"/>
    <route id="48" edges="61 13 310"/>
    <route id="49" edges="113 32 28"/>
    <route id="50" edges="92 20 05"/>
    <route id="51" edges="82 23 311"/>
    <route id="52" edges="50 02 29"/>
    <route id="53" edges="113 32 28"/>
    <route id="54" edges="103 31 16"/>
    <route id="55" edges="103 31 16"/>
    <route id="56" edges="92 20 05"/>
    <route id="57" edges="92 20 05"/>
    <route id="58" edges="71 10 04"/>
    <route id="59" edges="82 23 311"/>
    <route id="60" edges="82 23 311"/>
    <route id="61" edges="61 13 310"/>
    <route id="62" edges="50 02 29"/>
    <route id="63" edges="61 13 310"/>
    <route id="64" edges="113 32 28"/>
    <route id="65" edges="50 02 29"/>
    <route id="66" edges="50 02 29"/>
    <route id="67" edges="71 10 04"/>
    <route id="68" edges="61 13 310"/>
    <route id="69" edges="61 13 310"/>
    <route id="70" edges="61 13 310"/>
    <route id="71" edges="113 32 28"/>
    <route id="72" edges="40 01 17"/>
    <route id="73" edges="50 02 29"/>
    <route id="74" edges="61 13 310"/>
    <route id="75" edges="40 01 17"/>
    <route id="76" edges="113 32 28"/>
    <route id="77" edges="103 31 16"/>
    <route id="78" edges="113 32 28"/>
    <route id="79" edges="50 02 29"/>
    <route id="80" edges="92 20 05"/>
    <route id="81" edges="92 20 05"/>
    <route id="82" edges="92 20 05"/>
    <route id="83" edges="92 20 05"/>
    <route id="84" edges="103 31 16"/>
    <route id="85" edges="50 02 29"/>
    <route id="86" edges="103 31 16"/>
    <route id="87" edges="92 20 05"/>
    <route id="88" edges="61 13 310"/>
    <route id="89" edges="82 23 311"/>
    <route id="90" edges="92 20 05"/>
    <route id="91" edges="71 10 04"/>
    <route id="92" edges="40 01 17"/>
    <route id="93" edges="71 10 04"/>
    <route id="94" edges="113 32 28"/>
    <route id="95" edges="82 23 311"/>
    <route id="96" edges="71 10 04"/>
    <route id="97" edges="113 32 28"/>
    <route id="98" edges="71 10 04"/>
    <route id="99" edges="82 23 311"/>
    <route id="100" edges="103 31 16"/>
    <route id="101" edges="92 20 05"/>
    <route id="102" edges="103 31 16"/>
    <route id="103" edges="113 32 28"/>
    <route id="104" edges="61 13 310"/>
    <route id="105" edges="92 20 05"/>
    <route id="106" edges="61 13 310"/>
    <route id="107" edges="82 23 311"/>
    <route id="108" edges="113 32 28"/>
    <route id="109" edges="82 23 311"/>
    <route id="110" edges="82 23 311"/>
    <route id="111" edges="103 31 16"/>
    <route id="112" edges="71 10 04"/>
    <route id="113" edges="61 13 310"/>
    <route id="114" edges="92 20 05"/>
    <route id="115" edges="40 01 17"/>
    <route id="116" edges="61 13 310"/>
    <route id="117" edges="50 02 29"/>
    <route id="118" edges="82 23 311"/>
    <route id="119" edges="92 20 05"/>
    <route id="120" edges="61 13 310"/>
    <route id="121" edges="61 13 310"/>
    <route id="122" edges="40 01 17"/>
    <route id="123" edges="113 32 28"/>
    <route id="124" edges="113 32 28"/>
    <route id="125" edges="40 01 17"/>
    <route id="126" edges="61 13 310"/>
    <route id="127" edges="50 02 29"/>
    <route id="128" edges="92 20 05"/>
    <route id="129" edges="103 31 16"/>
    <route id="130" edges="40 01 17"/>
    <route id="131" edges="50 02 29"/>
    <route id="132" edges="50 02 29"/>
    <route id="133" edges="71 10 04"/>
    <route id="134" edges="113 32 28"/>
    <route id="135" edges="40 01 17"/>
    <route id="136" edges="113 32 28"/>
    <route id="137" edges="103 31 16"/>
    <route id="138" edges="40 01 17"/>
    <route id="139" edges="71 10 04"/>
    <route id="140" edges="103 31 16"/>
    <route id="141" edges="113 32 28"/>
    <route id="142" edges="82 23 311"/>
    <route id="143" edges="40 01 17"/>
    <route id="144" edges="103 31 16"/>
    <route id="145" edges="113 32 28"/>
    <route id="146" edges="50 02 29"/>
    <route id="147" edges="103 31 16"/>
    <route id="148" edges="113 32 28"/>
    <route id="149" edges="92 20 05"/>
    <route id="150" edges="82 23 311"/>
    <route id="151" edges="82 23 311"/>
    <route id="152" edges="50 02 29"/>
    <route id="153" edges="82 23 311"/>
    <route id="154" edges="92 20 05"/>
    <route id="155" edges="71 10 04"/>
    <route id="156" edges="103 31 16"/>
    <route id="157" edges="92 20 05"/>
    <route id="158" edges="82 23 311"/>
    <route id="159" edges="82 23 311"/>
    <route id="160" edges="71 10 04"/>
    <route id="161" edges="92 20 05"/>
    <route id="162" edges="61 13 310"/>
    <route id="163" edges="82 23 311"/>
    <route id="164" edges="92 20 05"/>
    <route id="165" edges="50 02 29"/>
    <route id="166" edges="92 20 05"/>
    <route id="167" edges="50 02 29"/>
    <route id="168" edges="113 32 28"/>
    <route id="169" edges="103 31 16"/>
    <route id="170" edges="71 10 04"/>
    <route id="171" edges="92 20 05"/>
    <route id="172" edges="113 32 28"/>
    <route id="173" edges="113 32 28"/>
    <route id="174" edges="71 10 04"/>
    <route id="175" edges="92 20 05"/>
    <route id="176" edges="40 01 17"/>
    <route id="177" edges="92 20 05"/>
    <route id="178" edges="71 10 04"/>
    <route id="179" edges="50 02 29"/>
    <route id="180" edges="113 32 28"/>

    <vehicle id="1_9" route="1" depart="9" />
    <vehicle id="2_13" route="2" depart="13" />
    <vehicle id="3_14" route="3" depart="14" />
    <vehicle id="4_19" route="4" depart="19" />
    <vehicle id="5_21" route="5" depart="21" />
    <vehicle id="6_24" route="6" depart="24" />
    <vehicle id="7_26" route="7" depart="26" />
    <vehicle id="8_29" route="8" depart="29" />
    <vehicle id="9_30" route="9" depart="30" />
    <vehicle id="10_32" route="10" depart="32" />
    <vehicle id="11_33" route="11" depart="33" />
    <vehicle id="12_35" route="12" depart="35" />
    <vehicle id="13_38" route="13" depart="38" />
    <vehicle id="14_42" route="14" depart="42" />
    <vehicle id="15_46" route="15" depart="46" />
    <vehicle id="16_48" route="16" depart="48" />
    <vehicle id="17_50" route="17" depart="50" />
    <vehicle id="18_52" route="18" depart="52" />
    <vehicle id="19_55" route="19" depart="55" />
    <vehicle id="20_59" route="20" depart="59" />
    <vehicle id="21_60" route="21" depart="60" />
    <vehicle id="22_74" route="22" depart="74" />
    <vehicle id="23_75" route="23" depart="75" />
    <vehicle id="24_77" route="24" depart="77" />
    <vehicle id="25_82" route="25" depart="82" />
    <vehicle id="26_84" route="26" depart="84" />
    <vehicle id="27_85" route="27" depart="85" />
    <vehicle id="28_86" route="28" depart="86" />
    <vehicle id="29_89" route="29" depart="89" />
    <vehicle id="30_92" route="30" depart="92" />
    <vehicle id="31_95" route="31" depart="95" />
    <vehicle id="32_96" route="32" depart="96" />
    <vehicle id="33_100" route="33" depart="100" />
    <vehicle id="34_103" route="34" depart="103" />
    <vehicle id="35_104" route="35" depart="104" />
    <vehicle id="36_106" route="36" depart="106" />
    <vehicle id="37_108" route="37" depart="108" />
    <vehicle id="38_114" route="38" depart="114" />
    <vehicle id="39_115" route="39" depart="115" />
    <vehicle id="40_116" route="40" depart="116" />
    <vehicle id="41_117" route="41" depart="117" />
    <vehicle id="42_119" route="42" depart="119" />
    <vehicle id="43_123" route="43" depart="123" />
    <vehicle id="44_131" route="44" depart="131" />
    <vehicle id="45_134" route="45" depart="134" />
    <vehicle id="46_136" route="46" depart="136" />
    <vehicle id="47_144" route="47" depart="144" />
    <vehicle id="48_146" route="48" depart="146" />
    <vehicle id="49_149" route="49" depart="149" />
    <vehicle id="50_150" route="50" depart="150" />
    <vehicle id="51_152" route="51" depart="152" />
    <vehicle id="52_153" route="52" depart="153" />
    <vehicle id="53_154" route="53" depart="154" />
    <vehicle id="54_158" route="54" depart="158" />
    <vehicle id="55_162" route="55" depart="162" />
    <vehicle id="56_164" route="56" depart="164" />
    <vehicle id="57_166" route="57" depart="166" />
    <vehicle id="58_167" route="58" depart="167" />
    <vehicle id="59_168" route="59" depart="168" />
    <vehicle id="60_173" route="60" depart="173" />
    <vehicle id="61_174" route="61" depart="174" />
    <vehicle id="62_175" route="62" depart="175" />
    <vehicle id="63_176" route="63" depart="176" />
    <vehicle id="64_178" route="64" depart="178" />
    <vehicle id="65_186" route="65" depart="186" />
    <vehicle id="66_196" route="66" depart="196" />
    <vehicle id="67_197" route="67" depart="197" />
    <vehicle id="68_199" route="68" depart="199" />
    <vehicle id="69_205" route="69" depart="205" />
    <vehicle id="70_208" route="70" depart="208" />
    <vehicle id="71_209" route="71" depart="209" />
    <vehicle id="72_210" route="72" depart="210" />
    <vehicle id="73_213" route="73" depart="213" />
    <vehicle id="74_218" route="74" depart="218" />
    <vehicle id="75_219" route="75" depart="219" />
    <vehicle id="76_222" route="76" depart="222" />
    <vehicle id="77_223" route="77" depart="223" />
    <vehicle id="78_227" route="78" depart="227" />
    <vehicle id="79_237" route="79" depart="237" />
    <vehicle id="80_238" route="80" depart="238" />
    <vehicle id="81_239" route="81" depart="239" />
    <vehicle id="82_240" route="82" depart="240" />
    <vehicle id="83_244" route="83" depart="244" />
    <vehicle id="84_245" route="84" depart="245" />
    <vehicle id="85_248" route="85" depart="248" />
    <vehicle id="86_251" route="86" depart="251" />
    <vehicle id="87_253" route="87" depart="253" />
    <vehicle id="88_257" route="88" depart="257" />
    <vehicle id="89_260" route="89" depart="260" />
    <vehicle id="90_262" route="90" depart="262" />
    <vehicle id="91_265" route="91" depart="265" />
    <vehicle id="92_268" route="92" depart="268" />
    <vehicle id="93_272" route="93" depart="272" />
    <vehicle id="94_273" route="94" depart="273" />
    <vehicle id="95_275" route="95" depart="275" />
    <vehicle id="96_277" route="96" depart="277" />
    <vehicle id="97_278" route="97" depart="278" />
    <vehicle id="98_279" route="98" depart="279" />
    <vehicle id="99_280" route="99" depart="280" />
    <vehicle id="100_281" route="100" depart="281" />
    <vehicle id="101_287" route="101" depart="287" />
    <vehicle id="102_289" route="102" depart="289" />
    <vehicle id="103_298" route="103" depart="298" />
    <vehicle id="104_300" route="104" depart="300" />
    <vehicle id="105_301" route="105" depart="301" />
    <vehicle id="106_303" route="106" depart="303" />
    <vehicle id="107_307" route="107" depart="307" />
    <vehicle id="108_310" route="108" depart="310" />
    <vehicle id="109_312" route="109" depart="312" />
    <vehicle id="110_314" route="110" depart="314" />
    <vehicle id="111_316" route="111" depart="316" />
    <vehicle id="112_319" route="112" depart="319" />
    <vehicle id="113_322" route="113" depart="322" />
    <vehicle id="114_328" route="114" depart="328" />
    <vehicle id="115_332" route="115" depart="332" />
    <vehicle id="116_334" route="116" depart="334" />
    <vehicle id="117_335" route="117" depart="335" />
    <vehicle id="118_336" route="118" depart="336" />
    <vehicle id="119_337" route="119" depart="337" />
    <vehicle id="120_338" route="120" depart="338" />
    <vehicle id="121_341" route="121" depart="341" />
    <vehicle id="122_345" route="122" depart="345" />
    <vehicle id="123_352" route="123" depart="352" />
    <vehicle id="124_353" route="124" depart="353" />
    <vehicle id="125_355" route="125" depart="355" />
    <vehicle id="126_356" route="126" depart="356" />
    <vehicle id="127_361" route="127" depart="361" />
    <vehicle id="128_364" route="128" depart="364" />
    <vehicle id="129_366" route="129" depart="366" />
    <vehicle id="130_367" route="130" depart="367" />
    <vehicle id="131_368" route="131" depart="368" />
    <vehicle id="132_372" route="132" depart="372" />
    <vehicle id="133_374" route="133" depart="374" />
    <vehicle id="134_381" route="134" depart="381" />
    <vehicle id="135_382" route="135" depart="382" />
    <vehicle id="136_384" route="136" depart="384" />
    <vehicle id="137_385" route="137" depart="385" />
    <vehicle id="138_386" route="138" depart="386" />
    <vehicle id="139_387" route="139" depart="387" />
    <vehicle id="140_391" route="140" depart="391" />
    <vehicle id="141_394" route="141" depart="394" />
    <vehicle id="142_395" route="142" depart="395" />
    <vehicle id="143_396" route="143" depart="396" />
    <vehicle id="144_397" route="144" depart="397" />
    <vehicle id="145_403" route="145" depart="403" />
    <vehicle id="146_404" route="146" depart="404" />
    <vehicle id="147_414" route="147" depart="414" />
    <vehicle id="148_415" route="148" depart="415" />
    <vehicle id="149_419" route="149" depart="419" />
    <vehicle id="150_422" route="150" depart="422" />
    <vehicle id="151_423" route="151" depart="423" />
    <vehicle id="152_425" route="152" depart="425" />
    <vehicle id="153_427" route="153" depart="427" />
    <vehicle id="154_429" route="154" depart="429" />
    <vehicle id="155_431" route="155" depart="431" />
    <vehicle id="156_435" route="156" depart="435" />
    <vehicle id="157_437" route="157" depart="437" />
    <vehicle id="158_438" route="158" depart="438" />
    <vehicle id="159_442" route="159" depart="442" />
    <vehicle id="160_444" route="160" depart="444" />
    <vehicle id="161_445" route="161" depart="445" />
    <vehicle id="162_447" route="162" depart="447" />
    <vehicle id="163_449" route="163" depart="449" />
    <vehicle id="164_452" route="164" depart="452" />
    <vehicle id="165_455" route="165" depart="455" />
    <vehicle id="166_458" route="166" depart="458" />
    <vehicle id="167_465" route="167" depart="465" />
    <vehicle id="168_470" route="168" depart="470" />
    <vehicle id="169_473" route="169" depart="473" />
    <vehicle id="170_474" route="170" depart="474" />
    <vehicle id="171_478" route="171" depart="478" />
    <vehicle id="172_479" route="172" depart="479" />
    <vehicle id="173_483" route="173" depart="483" />
    <vehicle id="174_486" route="174" depart="486" />
    <vehicle id="175_487" route="175" depart="487" />
    <vehicle id="176_491" route="176" depart="491" />
    <vehicle id="177_492" route="177" depart="492" />
    <vehicle id="178_494" route="178" depart="494" />
    <vehicle id="179_496" route="179" depart="496" />
    <vehicle id="180_498" route="180" depart="498" />

</routes>