<routes>

    <route id="1" edges="113 32 28"/>
    <route id="2" edges="82 23 311"/>
    <route id="3" edges="113 32 28"/>
    <route id="4" edges="61 13 310"/>
    <route id="5" edges="61 13 310"/>
    <route id="6" edges="40 01 17"/>
    <route id="7" edges="61 13 310"/>
    <route id="8" edges="92 20 05"/>
    <route id="9" edges="50 02 29"/>
    <route id="10" edges="82 23 311"/>
    <route id="11" edges="71 10 04"/>
    <route id="12" edges="82 23 311"/>
    <route id="13" edges="71 10 04"/>
    <route id="14" edges="71 10 04"/>
    <route id="15" edges="71 10 04"/>
    <route id="16" edges="40 01 17"/>
    <route id="17" edges="82 23 311"/>
    <route id="18" edges="40 01 17"/>
    <route id="19" edges="61 13 310"/>
    <route id="20" edges="82 23 311"/>
    <route id="21" edges="113 32 28"/>
    <route id="22" edges="103 31 16"/>
    <route id="23" edges="82 23 311"/>
    <route id="24" edges="50 02 29"/>
    <route id="25" edges="103 31 16"/>
    <route id="26" edges="40 01 17"/>
    <route id="27" edges="40 01 17"/>
    <route id="28" edges="103 31 16"/>
    <route id="29" edges="71 10 04"/>
    <route id="30" edges="61 13 310"/>
    <route id="31" edges="50 02 29"/>
    <route id="32" edges="61 13 310"/>
    <route id="33" edges="82 23 311"/>
    <route id="34" edges="50 02 29"/>
    <route id="35" edges="40 01 17"/>
    <route id="36" edges="50 02 29"/>
    <route id="37" edges="61 13 310"/>
    <route id="38" edges="61 13 310"/>
    <route id="39" edges="40 01 17"/>
    <route id="40" edges="71 10 04"/>
    <route id="41" edges="92 20 05"/>
    <route id="42" edges="92 20 05"/>
    <route id="43" edges="113 32 28"/>
    <route id="44" edges="92 20 05"/>
    <route id="45" edges="82 23 311"/>
    <route id="46" edges="71 10 04"/>
    <route id="47" edges="82 23 311"/>
    <route id="48" edges="50 02 29"/>
    <route id="49" edges="50 02 29"/>
    <route id="50" edges="71 10 04"/>
    <route id="51" edges="50 02 29"/>
    <route id="52" edges="61 13 310"/>
    <route id="53" edges="92 20 05"/>
    <route id="54" edges="103 31 16"/>
    <route id="55" edges="82 23 311"/>
    <route id="56" edges="61 13 310"/>
    <route id="57" edges="40 01 17"/>
    <route id="58" edges="92 20 05"/>
    <route id="59" edges="61 13 310"/>
    <route id="60" edges="71 10 04"/>
    <route id="61" edges="71 10 04"/>
    <route id="62" edges="50 02 29"/>
    <route id="63" edges="103 31 16"/>
    <route id="64" edges="50 02 29"/>
    <route id="65" edges="113 32 28"/>
    <route id="66" edges="71 10 04"/>
    <route id="67" edges="103 31 16"/>
    <route id="68" edges="92 20 05"/>
    <route id="69" edges="113 32 28"/>
    <route id="70" edges="71 10 04"/>
    <route id="71" edges="40 01 17"/>
    <route id="72" edges="113 32 28"/>
    <route id="73" edges="40 01 17"/>
    <route id="74" edges="82 23 311"/>
    <route id="75" edges="71 10 04"/>
    <route id="76" edges="40 01 17"/>
    <route id="77" edges="40 01 17"/>
    <route id="78" edges="103 31 16"/>
    <route id="79" edges="92 20 05"/>
    <route id="80" edges="50 02 29"/>
    <route id="81" edges="40 01 17"/>
    <route id="82" edges="103 31 16"/>
    <route id="83" edges="92 20 05"/>
    <route id="84" edges="82 23 311"/>
    <route id="85" edges="82 23 311"/>
    <route id="86" edges="82 23 311"/>
    <route id="87" edges="103 31 16"/>
    <route id="88" edges="113 32 28"/>
    <route id="89" edges="50 02 29"/>
    <route id="90" edges="40 01 17"/>
    <route id="91" edges="40 01 17"/>
    <route id="92" edges="103 31 16"/>
    <route id="93" edges="71 10 04"/>
    <route id="94" edges="103 31 16"/>
    <route id="95" edges="40 01 17"/>
    <route id="96" edges="71 10 04"/>
    <route id="97" edges="71 10 04"/>
    <route id="98" edges="50 02 29"/>
    <route id="99" edges="82 23 311"/>
    <route id="100" edges="82 23 311"/>
    <route id="101" edges="40 01 17"/>
    <route id="102" edges="71 10 04"/>
    <route id="103" edges="40 01 17"/>
    <route id="104" edges="61 13 310"/>
    <route id="105" edges="40 01 17"/>
    <route id="106" edges="40 01 17"/>
    <route id="107" edges="92 20 05"/>
    <route id="108" edges="82 23 311"/>
    <route id="109" edges="40 01 17"/>
    <route id="110" edges="103 31 16"/>
    <route id="111" edges="61 13 310"/>
    <route id="112" edges="113 32 28"/>
    <route id="113" edges="103 31 16"/>
    <route id="114" edges="82 23 311"/>
    <route id="115" edges="92 20 05"/>
    <route id="116" edges="82 23 311"/>
    <route id="117" edges="40 01 17"/>
    <route id="118" edges="50 02 29"/>
    <route id="119" edges="71 10 04"/>
    <route id="120" edges="103 31 16"/>
    <route id="121" edges="61 13 310"/>
    <route id="122" edges="92 20 05"/>
    <route id="123" edges="61 13 310"/>
    <route id="124" edges="61 13 310"/>
    <route id="125" edges="71 10 04"/>
    <route id="126" edges="50 02 29"/>
    <route id="127" edges="92 20 05"/>
    <route id="128" edges="113 32 28"/>
    <route id="129" edges="50 02 29"/>
    <route id="130" edges="61 13 310"/>
    <route id="131" edges="92 20 05"/>
    <route id="132" edges="71 10 04"/>
    <route id="133" edges="61 13 310"/>
    <route id="134" edges="61 13 310"/>
    <route id="135" edges="82 23 311"/>
    <route id="136" edges="82 23 311"/>
    <route id="137" edges="82 23 311"/>
    <route id="138" edges="103 31 16"/>
    <route id="139" edges="92 20 05"/>
    <route id="140" edges="113 32 28"/>
    <route id="141" edges="71 10 04"/>
    <route id="142" edges="92 20 05"/>
    <route id="143" edges="113 32 28"/>
    <route id="144" edges="50 02 29"/>
    <route id="145" edges="82 23 311"/>
    <route id="146" edges="103 31 16"/>
    <route id="147" edges="40 01 17"/>
    <route id="148" edges="50 02 29"/>
    <route id="149" edges="40 01 17"/>
    <route id="150" edges="92 20 05"/>
    <route id="151" edges="103 31 16"/>
    <route id="152" edges="50 02 29"/>
    <route id="153" edges="103 31 16"/>
    <route id="154" edges="82 23 311"/>
    <route id="155" edges="113 32 28"/>
    <route id="156" edges="103 31 16"/>
    <route id="157" edges="92 20 05"/>
    <route id="158" edges="103 31 16"/>
    <route id="159" edges="103 31 16"/>
    <route id="160" edges="113 32 28"/>
    <route id="161" edges="113 32 28"/>
    <route id="162" edges="82 23 311"/>
    <route id="163" edges="61 13 310"/>
    <route id="164" edges="61 13 310"/>
    <route id="165" edges="103 31 16"/>
    <route id="166" edges="103 31 16"/>
    <route id="167" edges="50 02 29"/>
    <route id="168" edges="61 13 310"/>
    <route id="169" edges="61 13 310"/>
    <route id="170" edges="71 10 04"/>
    <route id="171" edges="82 23 311"/>
    <route id="172" edges="71 10 04"/>
    <route id="173" edges="82 23 311"/>
    <route id="174" edges="82 23 311"/>
    <route id="175" edges="82 23 311"/>
    <route id="176" edges="113 32 28"/>
    <route id="177" edges="71 10 04"/>
    <route id="178" edges="71 10 04"/>
    <route id="179" edges="103 31 16"/>
    <route id="180" edges="61 13 310"/>
    <route id="181" edges="71 10 04"/>
    <route id="182" edges="103 31 16"/>
    <route id="183" edges="82 23 311"/>
    <route id="184" edges="113 32 28"/>
    <route id="185" edges="82 23 311"/>
    <route id="186" edges="40 01 17"/>
    <route id="187" edges="103 31 16"/>
    <route id="188" edges="113 32 28"/>
    <route id="189" edges="82 23 311"/>
    <route id="190" edges="71 10 04"/>
    <route id="191" edges="50 02 29"/>
    <route id="192" edges="92 20 05"/>
    <route id="193" edges="82 23 311"/>
    <route id="194" edges="71 10 04"/>
    <route id="195" edges="40 01 17"/>
    <route id="196" edges="82 23 311"/>
    <route id="197" edges="50 02 29"/>
    <route id="198" edges="71 10 04"/>
    <route id="199" edges="103 31 16"/>
    <route id="200" edges="40 01 17"/>
    <route id="201" edges="40 01 17"/>
    <route id="202" edges="92 20 05"/>
    <route id="203" edges="103 31 16"/>
    <route id="204" edges="92 20 05"/>
    <route id="205" edges="113 32 28"/>
    <route id="206" edges="50 02 29"/>
    <route id="207" edges="50 02 29"/>
    <route id="208" edges="40 01 17"/>
    <route id="209" edges="103 31 16"/>
    <route id="210" edges="82 23 311"/>
    <route id="211" edges="40 01 17"/>
    <route id="212" edges="50 02 29"/>
    <route id="213" edges="71 10 04"/>
    <route id="214" edges="103 31 16"/>
    <route id="215" edges="40 01 17"/>
    <route id="216" edges="103 31 16"/>
    <route id="217" edges="92 20 05"/>
    <route id="218" edges="71 10 04"/>
    <route id="219" edges="50 02 29"/>
    <route id="220" edges="92 20 05"/>
    <route id="221" edges="103 31 16"/>

    <vehicle id="1_0" route="1" depart="0" />
    <vehicle id="2_1" route="2" depart="1" />
    <vehicle id="3_3" route="3" depart="3" />
    <vehicle id="4_5" route="4" depart="5" />
    <vehicle id="5_9" route="5" depart="9" />
    <vehicle id="6_10" route="6" depart="10" />
    <vehicle id="7_12" route="7" depart="12" />
    <vehicle id="8_13" route="8" depart="13" />
    <vehicle id="9_15" route="9" depart="15" />
    <vehicle id="10_17" route="10" depart="17" />
    <vehicle id="11_18" route="11" depart="18" />
    <vehicle id="12_22" route="12" depart="22" />
    <vehicle id="13_26" route="13" depart="26" />
    <vehicle id="14_30" route="14" depart="30" />
    <vehicle id="15_35" route="15" depart="35" />
    <vehicle id="16_36" route="16" depart="36" />
    <vehicle id="17_38" route="17" depart="38" />
    <vehicle id="18_40" route="18" depart="40" />
    <vehicle id="19_42" route="19" depart="42" />
    <vehicle id="20_43" route="20" depart="43" />
    <vehicle id="21_44" route="21" depart="44" />
    <vehicle id="22_45" route="22" depart="45" />
    <vehicle id="23_46" route="23" depart="46" />
    <vehicle id="24_48" route="24" depart="48" />
    <vehicle id="25_49" route="25" depart="49" />
    <vehicle id="26_53" route="26" depart="53" />
    <vehicle id="27_57" route="27" depart="57" />
    <vehicle id="28_58" route="28" depart="58" />
    <vehicle id="29_60" route="29" depart="60" />
    <vehicle id="30_61" route="30" depart="61" />
    <vehicle id="31_62" route="31" depart="62" />
    <vehicle id="32_63" route="32" depart="63" />
    <vehicle id="33_69" route="33" depart="69" />
    <vehicle id="34_71" route="34" depart="71" />
    <vehicle id="35_74" route="35" depart="74" />
    <vehicle id="36_76" route="36" depart="76" />
    <vehicle id="37_77" route="37" depart="77" />
    <vehicle id="38_78" route="38" depart="78" />
    <vehicle id="39_79" route="39" depart="79" />
    <vehicle id="40_82" route="40" depart="82" />
    <vehicle id="41_86" route="41" depart="86" />
    <vehicle id="42_88" route="42" depart="88" />
    <vehicle id="43_93" route="43" depart="93" />
    <vehicle id="44_98" route="44" depart="98" />
    <vehicle id="45_103" route="45" depart="103" />
    <vehicle id="46_106" route="46" depart="106" />
    <vehicle id="47_109" route="47" depart="109" />
    <vehicle id="48_110" route="48" depart="110" />
    <vehicle id="49_113" route="49" depart="113" />
    <vehicle id="50_116" route="50" depart="116" />
    <vehicle id="51_117" route="51" depart="117" />
    <vehicle id="52_120" route="52" depart="120" />
    <vehicle id="53_121" route="53" depart="121" />
    <vehicle id="54_124" route="54" depart="124" />
    <vehicle id="55_125" route="55" depart="125" />
    <vehicle id="56_127" route="56" depart="127" />
    <vehicle id="57_131" route="57" depart="131" />
    <vehicle id="58_132" route="58" depart="132" />
    <vehicle id="59_134" route="59" depart="134" />
    <vehicle id="60_135" route="60" depart="135" />
    <vehicle id="61_136" route="61" depart="136" />
    <vehicle id="62_137" route="62" depart="137" />
    <vehicle id="63_138" route="63" depart="138" />
    <vehicle id="64_139" route="64" depart="139" />
    <vehicle id="65_141" route="65" depart="141" />
    <vehicle id="66_148" route="66" depart="148" />
    <vehicle id="67_151" route="67" depart="151" />
    <vehicle id="68_154" route="68" depart="154" />
    <vehicle id="69_155" route="69" depart="155" />
    <vehicle id="70_156" route="70" depart="156" />
    <vehicle id="71_161" route="71" depart="161" />
    <vehicle id="72_162" route="72" depart="162" />
    <vehicle id="73_166" route="73" depart="166" />
    <vehicle id="74_167" route="74" depart="167" />
    <vehicle id="75_169" route="75" depart="169" />
    <vehicle id="76_170" route="76" depart="170" />
    <vehicle id="77_173" route="77" depart="173" />
    <vehicle id="78_174" route="78" depart="174" />
    <vehicle id="79_177" route="79" depart="177" />
    <vehicle id="80_183" route="80" depart="183" />
    <vehicle id="81_184" route="81" depart="184" />
    <vehicle id="82_187" route="82" depart="187" />
    <vehicle id="83_188" route="83" depart="188" />
    <vehicle id="84_190" route="84" depart="190" />
    <vehicle id="85_194" route="85" depart="194" />
    <vehicle id="86_196" route="86" depart="196" />
    <vehicle id="87_197" route="87" depart="197" />
    <vehicle id="88_199" route="88" depart="199" />
    <vehicle id="89_202" route="89" depart="202" />
    <vehicle id="90_204" route="90" depart="204" />
    <vehicle id="91_205" route="91" depart="205" />
    <vehicle id="92_206" route="92" depart="206" />
    <vehicle id="93_211" route="93" depart="211" />
    <vehicle id="94_215" route="94" depart="215" />
    <vehicle id="95_216" route="95" depart="216" />
    <vehicle id="96_221" route="96" depart="221" />
    <vehicle id="97_222" route="97" depart="222" />
    <vehicle id="98_223" route="98" depart="223" />
    <vehicle id="99_224" route="99" depart="224" />
    <vehicle id="100_226" route="100" depart="226" />
    <vehicle id="101_228" route="101" depart="228" />
    <vehicle id="102_229" route="102" depart="229" />
    <vehicle id="103_230" route="103" depart="230" />
    <vehicle id="104_233" route="104" depart="233" />
    <vehicle id="105_235" route="105" depart="235" />
    <vehicle id="106_236" route="106" depart="236" />
    <vehicle id="107_237" route="107" depart="237" />
    <vehicle id="108_238" route="108" depart="238" />
    <vehicle id="109_242" route="109" depart="242" />
    <vehicle id="110_243" route="110" depart="243" />
    <vehicle id="111_250" route="111" depart="250" />
    <vehicle id="112_254" route="112" depart="254" />
    <vehicle id="113_256" route="113" depart="256" />
    <vehicle id="114_257" route="114" depart="257" />
    <vehicle id="115_260" route="115" depart="260" />
    <vehicle id="116_262" route="116" depart="262" />
    <vehicle id="117_263" route="117" depart="263" />
    <vehicle id="118_264" route="118" depart="264" />
    <vehicle id="119_267" route="119" depart="267" />
    <vehicle id="120_271" route="120" depart="271" />
    <vehicle id="121_272" route="121" depart="272" />
    <vehicle id="122_274" route="122" depart="274" />
    <vehicle id="123_279" route="123" depart="279" />
    <vehicle id="124_280" route="124" depart="280" />
    <vehicle id="125_285" route="125" depart="285" />
    <vehicle id="126_287" route="126" depart="287" />
    <vehicle id="127_291" route="127" depart="291" />
    <vehicle id="128_292" route="128" depart="292" />
    <vehicle id="129_293" route="129" depart="293" />
    <vehicle id="130_294" route="130" depart="294" />
    <vehicle id="131_298" route="131" depart="298" />
    <vehicle id="132_303" route="132" depart="303" />
    <vehicle id="133_309" route="133" depart="309" />
    <vehicle id="134_312" route="134" depart="312" />
    <vehicle id="135_317" route="135" depart="317" />
    <vehicle id="136_318" route="136" depart="318" />
    <vehicle id="137_319" route="137" depart="319" />
    <vehicle id="138_320" route="138" depart="320" />
    <vehicle id="139_321" route="139" depart="321" />
    <vehicle id="140_324" route="140" depart="324" />
    <vehicle id="141_326" route="141" depart="326" />
    <vehicle id="142_328" route="142" depart="328" />
    <vehicle id="143_329" route="143" depart="329" />
    <vehicle id="144_331" route="144" depart="331" />
    <vehicle id="145_333" route="145" depart="333" />
    <vehicle id="146_334" route="146" depart="334" />
    <vehicle id="147_335" route="147" depart="335" />
    <vehicle id="148_339" route="148" depart="339" />
    <vehicle id="149_340" route="149" depart="340" />
    <vehicle id="150_341" route="150" depart="341" />
    <vehicle id="151_342" route="151" depart="342" />
    <vehicle id="152_344" route="152" depart="344" />
    <vehicle id="153_346" route="153" depart="346" />
    <vehicle id="154_349" route="154" depart="349" />
    <vehicle id="155_351" route="155" depart="351" />
    <vehicle id="156_354" route="156" depart="354" />
    <vehicle id="157_355" route="157" depart="355" />
    <vehicle id="158_356" route="158" depart="356" />
    <vehicle id="159_360" route="159" depart="360" />
    <vehicle id="160_361" route="160" depart="361" />
    <vehicle id="161_362" route="161" depart="362" />
    <vehicle id="162_367" route="162" depart="367" />
    <vehicle id="163_368" route="163" depart="368" />
    <vehicle id="164_369" route="164" depart="369" />
    <vehicle id="165_370" route="165" depart="370" />
    <vehicle id="166_372" route="166" depart="372" />
    <vehicle id="167_375" route="167" depart="375" />
    <vehicle id="168_376" route="168" depart="376" />
    <vehicle id="169_379" route="169" depart="379" />
    <vehicle id="170_380" route="170" depart="380" />
    <vehicle id="171_382" route="171" depart="382" />
    <vehicle id="172_390" route="172" depart="390" />
    <vehicle id="173_391" route="173" depart="391" />
    <vehicle id="174_392" route="174" depart="392" />
    <vehicle id="175_394" route="175" depart="394" />
    <vehicle id="176_398" route="176" depart="398" />
    <vehicle id="177_405" route="177" depart="405" />
    <vehicle id="178_415" route="178" depart="415" />
    <vehicle id="179_416" route="179" depart="416" />
    <vehicle id="180_417" route="180" depart="417" />
    <vehicle id="181_419" route="181" depart="419" />
    <vehicle id="182_420" route="182" depart="420" />
    <vehicle id="183_421" route="183" depart="421" />
    <vehicle id="184_423" route="184" depart="423" />
    <vehicle id="185_427" route="185" depart="427" />
    <vehicle id="186_429" route="186" depart="429" />
    <vehicle id="187_431" route="187" depart="431" />
    <vehicle id="188_432" route="188" depart="432" />
    <vehicle id="189_434" route="189" depart="434" />
    <vehicle id="190_435" route="190" depart="435" />
    <vehicle id="191_436" route="191" depart="436" />
    <vehicle id="192_440" route="192" depart="440" />
    <vehicle id="193_442" route="193" depart="442" />
    <vehicle id="194_443" route="194" depart="443" />
    <vehicle id="195_447" route="195" depart="447" />
    <vehicle id="196_448" route="196" depart="448" />
    <vehicle id="197_450" route="197" depart="450" />
    <vehicle id="198_452" route="198" depart="452" />
    <vehicle id="199_454" route="199" depart="454" />
    <vehicle id="200_455" route="200" depart="455" />
    <vehicle id="201_458" route="201" depart="458" />
    <vehicle id="202_460" route="202" depart="460" />
    <vehicle id="203_461" route="203" depart="461" />
    <vehicle id="204_465" route="204" depart="465" />
    <vehicle id="205_466" route="205" depart="466" />
    <vehicle id="206_469" route="206" depart="469" />
    <vehicle id="207_470" route="207" depart="470" />
    <vehicle id="208_471" route="208" depart="471" />
    <vehicle id="209_472" route="209" depart="472" />
    <vehicle id="210_473" route="210" depart="473" />
    <vehicle id="211_474" route="211" depart="474" />
    <vehicle id="212_475" route="212" depart="475" />
    <vehicle id="213_476" route="213" depart="476" />
    <vehicle id="214_480" route="214" depart="480" />
    <vehicle id="215_487" route="215" depart="487" />
    <vehicle id="216_490" route="216" depart="490" />
    <vehicle id="217_491" route="217" depart="491" />
    <vehicle id="218_493" route="218" depart="493" />
    <vehicle id="219_494" route="219" depart="494" />
    <vehicle id="220_495" route="220" depart="495" />
    <vehicle id="221_497" route="221" depart="497" />

</routes>