<?xml version="1.0" encoding="UTF-8"?>
<nodes xmlns:xsi="http://www.w3.org/2001/XMLSchema-instance" xsi:noNamespaceSchemaLocation="http://sumo.dlr.de/xsd/nodes_file.xsd">
 <node id="0" x="0.0" y="0.0" type="traffic_light"/>
 <node id="1" x="500.0" y="0.0" type="traffic_light"/>
 <node id="2" x="1000.0" y="0.0" type="traffic_light"/>
 <node id="3" x="-500.0" y="0.0" type="priority"/>
 <node id="4" x="0.0" y="+500.0" type="priority"/>
 <node id="5" x="500.0" y="500.0" type="priority"/>
 <node id="6" x="1000.0" y="500.0" type="priority"/>
 <node id="7" x="1500.0" y="0.0" type="priority"/>
 <node id="8" x="0.0" y="-500.0" type="priority"/>
 <node id="9" x="500.0" y="-500.0" type="priority"/> 
 <node id="10" x="1000.0" y="-500.0" type="priority"/> 
</nodes>
