<routes>

    <route id="1" edges="5i 1i 4o"/>
    <route id="2" edges="7i 6o"/>
    <route id="3" edges="7i 6o"/>
    <route id="4" edges="3i 2o"/>
    <route id="5" edges="7i 6o"/>
    <route id="6" edges="6i 7o"/>
    <route id="7" edges="5i 1i 4o"/>
    <route id="8" edges="3i 2o"/>
    <route id="9" edges="3i 2o"/>
    <route id="10" edges="6i 7o"/>
    <route id="11" edges="3i 2o"/>
    <route id="12" edges="6i 7o"/>
    <route id="13" edges="4i 1o 5o"/>
    <route id="14" edges="5i 1i 4o"/>
    <route id="15" edges="3i 2o"/>
    <route id="16" edges="5i 1i 4o"/>
    <route id="17" edges="5i 1i 4o"/>
    <route id="18" edges="5i 1i 4o"/>
    <route id="19" edges="5i 1i 4o"/>
    <route id="20" edges="2i 3o"/>
    <route id="21" edges="2i 3o"/>
    <route id="22" edges="6i 7o"/>
    <route id="23" edges="6i 7o"/>
    <route id="24" edges="7i 6o"/>
    <route id="25" edges="2i 3o"/>
    <route id="26" edges="3i 2o"/>
    <route id="27" edges="2i 3o"/>
    <route id="28" edges="5i 1i 4o"/>
    <route id="29" edges="5i 1i 4o"/>
    <route id="30" edges="5i 1i 4o"/>
    <route id="31" edges="4i 1o 5o"/>
    <route id="32" edges="7i 6o"/>
    <route id="33" edges="6i 7o"/>
    <route id="34" edges="4i 1o 5o"/>
    <route id="35" edges="5i 1i 4o"/>
    <route id="36" edges="6i 7o"/>
    <route id="37" edges="3i 2o"/>
    <route id="38" edges="2i 3o"/>
    <route id="39" edges="2i 3o"/>
    <route id="40" edges="3i 2o"/>
    <route id="41" edges="6i 7o"/>
    <route id="42" edges="5i 1i 4o"/>
    <route id="43" edges="5i 1i 4o"/>
    <route id="44" edges="2i 3o"/>
    <route id="45" edges="6i 7o"/>
    <route id="46" edges="4i 1o 5o"/>
    <route id="47" edges="6i 7o"/>
    <route id="48" edges="2i 3o"/>
    <route id="49" edges="2i 3o"/>
    <route id="50" edges="2i 3o"/>
    <route id="51" edges="3i 2o"/>
    <route id="52" edges="2i 3o"/>
    <route id="53" edges="2i 3o"/>
    <route id="54" edges="2i 3o"/>
    <route id="55" edges="3i 2o"/>
    <route id="56" edges="5i 1i 4o"/>
    <route id="57" edges="6i 7o"/>
    <route id="58" edges="7i 6o"/>
    <route id="59" edges="4i 1o 5o"/>
    <route id="60" edges="3i 2o"/>
    <route id="61" edges="7i 6o"/>
    <route id="62" edges="6i 7o"/>
    <route id="63" edges="5i 1i 4o"/>
    <route id="64" edges="5i 1i 4o"/>
    <route id="65" edges="4i 1o 5o"/>
    <route id="66" edges="2i 3o"/>
    <route id="67" edges="6i 7o"/>
    <route id="68" edges="2i 3o"/>
    <route id="69" edges="4i 1o 5o"/>
    <route id="70" edges="7i 6o"/>
    <route id="71" edges="6i 7o"/>
    <route id="72" edges="3i 2o"/>
    <route id="73" edges="7i 6o"/>
    <route id="74" edges="6i 7o"/>
    <route id="75" edges="4i 1o 5o"/>
    <route id="76" edges="6i 7o"/>
    <route id="77" edges="7i 6o"/>
    <route id="78" edges="7i 6o"/>
    <route id="79" edges="4i 1o 5o"/>
    <route id="80" edges="3i 2o"/>
    <route id="81" edges="7i 6o"/>
    <route id="82" edges="6i 7o"/>
    <route id="83" edges="3i 2o"/>
    <route id="84" edges="3i 2o"/>
    <route id="85" edges="6i 7o"/>
    <route id="86" edges="3i 2o"/>
    <route id="87" edges="4i 1o 5o"/>
    <route id="88" edges="2i 3o"/>
    <route id="89" edges="6i 7o"/>
    <route id="90" edges="3i 2o"/>
    <route id="91" edges="6i 7o"/>
    <route id="92" edges="2i 3o"/>
    <route id="93" edges="5i 1i 4o"/>
    <route id="94" edges="6i 7o"/>
    <route id="95" edges="5i 1i 4o"/>
    <route id="96" edges="2i 3o"/>
    <route id="97" edges="3i 2o"/>
    <route id="98" edges="7i 6o"/>
    <route id="99" edges="3i 2o"/>
    <route id="100" edges="6i 7o"/>
    <route id="101" edges="3i 2o"/>
    <route id="102" edges="2i 3o"/>
    <route id="103" edges="5i 1i 4o"/>
    <route id="104" edges="6i 7o"/>
    <route id="105" edges="5i 1i 4o"/>
    <route id="106" edges="7i 6o"/>
    <route id="107" edges="7i 6o"/>
    <route id="108" edges="2i 3o"/>
    <route id="109" edges="2i 3o"/>
    <route id="110" edges="5i 1i 4o"/>
    <route id="111" edges="5i 1i 4o"/>
    <route id="112" edges="7i 6o"/>
    <route id="113" edges="5i 1i 4o"/>
    <route id="114" edges="7i 6o"/>
    <route id="115" edges="7i 6o"/>
    <route id="116" edges="4i 1o 5o"/>
    <route id="117" edges="6i 7o"/>
    <route id="118" edges="4i 1o 5o"/>
    <route id="119" edges="2i 3o"/>
    <route id="120" edges="6i 7o"/>
    <route id="121" edges="2i 3o"/>
    <route id="122" edges="6i 7o"/>
    <route id="123" edges="2i 3o"/>
    <route id="124" edges="7i 6o"/>
    <route id="125" edges="2i 3o"/>
    <route id="126" edges="2i 3o"/>
    <route id="127" edges="5i 1i 4o"/>
    <route id="128" edges="7i 6o"/>
    <route id="129" edges="3i 2o"/>
    <route id="130" edges="5i 1i 4o"/>
    <route id="131" edges="6i 7o"/>
    <route id="132" edges="7i 6o"/>
    <route id="133" edges="4i 1o 5o"/>
    <route id="134" edges="3i 2o"/>
    <route id="135" edges="7i 6o"/>
    <route id="136" edges="7i 6o"/>
    <route id="137" edges="2i 3o"/>
    <route id="138" edges="5i 1i 4o"/>
    <route id="139" edges="2i 3o"/>
    <route id="140" edges="7i 6o"/>
    <route id="141" edges="7i 6o"/>
    <route id="142" edges="6i 7o"/>
    <route id="143" edges="7i 6o"/>
    <route id="144" edges="4i 1o 5o"/>
    <route id="145" edges="3i 2o"/>
    <route id="146" edges="6i 7o"/>
    <route id="147" edges="6i 7o"/>
    <route id="148" edges="4i 1o 5o"/>
    <route id="149" edges="7i 6o"/>
    <route id="150" edges="4i 1o 5o"/>
    <route id="151" edges="5i 1i 4o"/>
    <route id="152" edges="6i 7o"/>
    <route id="153" edges="7i 6o"/>
    <route id="154" edges="2i 3o"/>
    <route id="155" edges="3i 2o"/>
    <route id="156" edges="7i 6o"/>
    <route id="157" edges="6i 7o"/>
    <route id="158" edges="6i 7o"/>
    <route id="159" edges="2i 3o"/>
    <route id="160" edges="5i 1i 4o"/>
    <route id="161" edges="3i 2o"/>
    <route id="162" edges="3i 2o"/>
    <route id="163" edges="5i 1i 4o"/>
    <route id="164" edges="5i 1i 4o"/>
    <route id="165" edges="7i 6o"/>
    <route id="166" edges="5i 1i 4o"/>
    <route id="167" edges="7i 6o"/>
    <route id="168" edges="2i 3o"/>
    <route id="169" edges="5i 1i 4o"/>
    <route id="170" edges="4i 1o 5o"/>
    <route id="171" edges="4i 1o 5o"/>
    <route id="172" edges="2i 3o"/>
    <route id="173" edges="6i 7o"/>
    <route id="174" edges="3i 2o"/>
    <route id="175" edges="6i 7o"/>
    <route id="176" edges="3i 2o"/>
    <route id="177" edges="7i 6o"/>
    <route id="178" edges="3i 2o"/>
    <route id="179" edges="5i 1i 4o"/>
    <route id="180" edges="6i 7o"/>
    <route id="181" edges="7i 6o"/>
    <route id="182" edges="2i 3o"/>
    <route id="183" edges="5i 1i 4o"/>
    <route id="184" edges="4i 1o 5o"/>
    <route id="185" edges="7i 6o"/>
    <route id="186" edges="4i 1o 5o"/>
    <route id="187" edges="6i 7o"/>
    <route id="188" edges="2i 3o"/>
    <route id="189" edges="3i 2o"/>
    <route id="190" edges="3i 2o"/>
    <route id="191" edges="6i 7o"/>
    <route id="192" edges="2i 3o"/>
    <route id="193" edges="7i 6o"/>
    <route id="194" edges="2i 3o"/>
    <route id="195" edges="3i 2o"/>
    <route id="196" edges="2i 3o"/>
    <route id="197" edges="4i 1o 5o"/>
    <route id="198" edges="6i 7o"/>
    <route id="199" edges="5i 1i 4o"/>
    <route id="200" edges="4i 1o 5o"/>
    <route id="201" edges="3i 2o"/>
    <route id="202" edges="5i 1i 4o"/>
    <route id="203" edges="3i 2o"/>
    <route id="204" edges="2i 3o"/>
    <route id="205" edges="7i 6o"/>
    <route id="206" edges="4i 1o 5o"/>
    <route id="207" edges="3i 2o"/>
    <route id="208" edges="4i 1o 5o"/>
    <route id="209" edges="5i 1i 4o"/>
    <route id="210" edges="2i 3o"/>
    <route id="211" edges="6i 7o"/>
    <route id="212" edges="6i 7o"/>
    <route id="213" edges="3i 2o"/>
    <route id="214" edges="6i 7o"/>
    <route id="215" edges="5i 1i 4o"/>
    <route id="216" edges="7i 6o"/>
    <route id="217" edges="6i 7o"/>
    <route id="218" edges="2i 3o"/>
    <route id="219" edges="2i 3o"/>
    <route id="220" edges="3i 2o"/>
    <route id="221" edges="5i 1i 4o"/>
    <route id="222" edges="6i 7o"/>
    <route id="223" edges="2i 3o"/>
    <route id="224" edges="5i 1i 4o"/>
    <route id="225" edges="6i 7o"/>
    <route id="226" edges="7i 6o"/>
    <route id="227" edges="6i 7o"/>
    <route id="228" edges="4i 1o 5o"/>
    <route id="229" edges="4i 1o 5o"/>
    <route id="230" edges="5i 1i 4o"/>
    <route id="231" edges="2i 3o"/>
    <route id="232" edges="6i 7o"/>
    <route id="233" edges="6i 7o"/>
    <route id="234" edges="4i 1o 5o"/>
    <route id="235" edges="3i 2o"/>
    <route id="236" edges="5i 1i 4o"/>
    <route id="237" edges="3i 2o"/>
    <route id="238" edges="5i 1i 4o"/>
    <route id="239" edges="7i 6o"/>
    <route id="240" edges="5i 1i 4o"/>
    <route id="241" edges="2i 3o"/>
    <route id="242" edges="3i 2o"/>
    <route id="243" edges="5i 1i 4o"/>
    <route id="244" edges="6i 7o"/>
    <route id="245" edges="3i 2o"/>
    <route id="246" edges="2i 3o"/>
    <route id="247" edges="2i 3o"/>
    <route id="248" edges="2i 3o"/>
    <route id="249" edges="2i 3o"/>
    <route id="250" edges="7i 6o"/>
    <route id="251" edges="4i 1o 5o"/>
    <route id="252" edges="3i 2o"/>
    <route id="253" edges="5i 1i 4o"/>
    <route id="254" edges="4i 1o 5o"/>
    <route id="255" edges="2i 3o"/>
    <route id="256" edges="5i 1i 4o"/>
    <route id="257" edges="6i 7o"/>
    <route id="258" edges="2i 3o"/>
    <route id="259" edges="2i 3o"/>
    <route id="260" edges="7i 6o"/>
    <route id="261" edges="6i 7o"/>
    <route id="262" edges="7i 6o"/>
    <route id="263" edges="6i 7o"/>
    <route id="264" edges="6i 7o"/>
    <route id="265" edges="6i 7o"/>
    <route id="266" edges="6i 7o"/>
    <route id="267" edges="2i 3o"/>
    <route id="268" edges="2i 3o"/>
    <route id="269" edges="7i 6o"/>
    <route id="270" edges="2i 3o"/>
    <route id="271" edges="6i 7o"/>
    <route id="272" edges="2i 3o"/>
    <route id="273" edges="6i 7o"/>
    <route id="274" edges="5i 1i 4o"/>
    <route id="275" edges="5i 1i 4o"/>
    <route id="276" edges="2i 3o"/>
    <route id="277" edges="2i 3o"/>
    <route id="278" edges="6i 7o"/>
    <route id="279" edges="6i 7o"/>
    <route id="280" edges="3i 2o"/>
    <route id="281" edges="6i 7o"/>
    <route id="282" edges="4i 1o 5o"/>
    <route id="283" edges="4i 1o 5o"/>
    <route id="284" edges="6i 7o"/>
    <route id="285" edges="6i 7o"/>
    <route id="286" edges="4i 1o 5o"/>
    <route id="287" edges="2i 3o"/>
    <route id="288" edges="6i 7o"/>
    <route id="289" edges="6i 7o"/>
    <route id="290" edges="6i 7o"/>
    <route id="291" edges="7i 6o"/>
    <route id="292" edges="3i 2o"/>
    <route id="293" edges="4i 1o 5o"/>
    <route id="294" edges="7i 6o"/>
    <route id="295" edges="7i 6o"/>
    <route id="296" edges="2i 3o"/>
    <route id="297" edges="3i 2o"/>
    <route id="298" edges="3i 2o"/>
    <route id="299" edges="5i 1i 4o"/>
    <route id="300" edges="4i 1o 5o"/>
    <route id="301" edges="4i 1o 5o"/>
    <route id="302" edges="4i 1o 5o"/>
    <route id="303" edges="3i 2o"/>
    <route id="304" edges="6i 7o"/>
    <route id="305" edges="2i 3o"/>
    <route id="306" edges="6i 7o"/>
    <route id="307" edges="2i 3o"/>
    <route id="308" edges="2i 3o"/>
    <route id="309" edges="6i 7o"/>
    <route id="310" edges="4i 1o 5o"/>
    <route id="311" edges="2i 3o"/>
    <route id="312" edges="4i 1o 5o"/>
    <route id="313" edges="7i 6o"/>
    <route id="314" edges="5i 1i 4o"/>
    <route id="315" edges="3i 2o"/>
    <route id="316" edges="3i 2o"/>
    <route id="317" edges="6i 7o"/>
    <route id="318" edges="3i 2o"/>
    <route id="319" edges="5i 1i 4o"/>
    <route id="320" edges="3i 2o"/>
    <route id="321" edges="5i 1i 4o"/>
    <route id="322" edges="5i 1i 4o"/>
    <route id="323" edges="2i 3o"/>
    <route id="324" edges="5i 1i 4o"/>
    <route id="325" edges="4i 1o 5o"/>
    <route id="326" edges="3i 2o"/>
    <route id="327" edges="6i 7o"/>
    <route id="328" edges="4i 1o 5o"/>
    <route id="329" edges="2i 3o"/>
    <route id="330" edges="7i 6o"/>
    <route id="331" edges="5i 1i 4o"/>
    <route id="332" edges="5i 1i 4o"/>
    <route id="333" edges="2i 3o"/>
    <route id="334" edges="3i 2o"/>
    <route id="335" edges="2i 3o"/>
    <route id="336" edges="2i 3o"/>
    <route id="337" edges="5i 1i 4o"/>
    <route id="338" edges="5i 1i 4o"/>
    <route id="339" edges="5i 1i 4o"/>
    <route id="340" edges="5i 1i 4o"/>
    <route id="341" edges="7i 6o"/>
    <route id="342" edges="2i 3o"/>
    <route id="343" edges="6i 7o"/>
    <route id="344" edges="5i 1i 4o"/>
    <route id="345" edges="5i 1i 4o"/>
    <route id="346" edges="5i 1i 4o"/>
    <route id="347" edges="2i 3o"/>
    <route id="348" edges="5i 1i 4o"/>
    <route id="349" edges="6i 7o"/>
    <route id="350" edges="4i 1o 5o"/>
    <route id="351" edges="6i 7o"/>
    <route id="352" edges="4i 1o 5o"/>
    <route id="353" edges="3i 2o"/>
    <route id="354" edges="4i 1o 5o"/>
    <route id="355" edges="5i 1i 4o"/>
    <route id="356" edges="7i 6o"/>
    <route id="357" edges="6i 7o"/>
    <route id="358" edges="2i 3o"/>
    <route id="359" edges="6i 7o"/>
    <route id="360" edges="2i 3o"/>
    <route id="361" edges="7i 6o"/>
    <route id="362" edges="3i 2o"/>
    <route id="363" edges="6i 7o"/>
    <route id="364" edges="5i 1i 4o"/>
    <route id="365" edges="6i 7o"/>
    <route id="366" edges="7i 6o"/>
    <route id="367" edges="6i 7o"/>

    <vehicle id="1_13" route="1" depart="13" />
    <vehicle id="2_27" route="2" depart="27" />
    <vehicle id="3_34" route="3" depart="34" />
    <vehicle id="4_38" route="4" depart="38" />
    <vehicle id="5_46" route="5" depart="46" />
    <vehicle id="6_51" route="6" depart="51" />
    <vehicle id="7_52" route="7" depart="52" />
    <vehicle id="8_57" route="8" depart="57" />
    <vehicle id="9_67" route="9" depart="67" />
    <vehicle id="10_72" route="10" depart="72" />
    <vehicle id="11_74" route="11" depart="74" />
    <vehicle id="12_76" route="12" depart="76" />
    <vehicle id="13_87" route="13" depart="87" />
    <vehicle id="14_100" route="14" depart="100" />
    <vehicle id="15_104" route="15" depart="104" />
    <vehicle id="16_114" route="16" depart="114" />
    <vehicle id="17_115" route="17" depart="115" />
    <vehicle id="18_118" route="18" depart="118" />
    <vehicle id="19_127" route="19" depart="127" />
    <vehicle id="20_137" route="20" depart="137" />
    <vehicle id="21_138" route="21" depart="138" />
    <vehicle id="22_140" route="22" depart="140" />
    <vehicle id="23_154" route="23" depart="154" />
    <vehicle id="24_170" route="24" depart="170" />
    <vehicle id="25_179" route="25" depart="179" />
    <vehicle id="26_193" route="26" depart="193" />
    <vehicle id="27_194" route="27" depart="194" />
    <vehicle id="28_213" route="28" depart="213" />
    <vehicle id="29_217" route="29" depart="217" />
    <vehicle id="30_248" route="30" depart="248" />
    <vehicle id="31_270" route="31" depart="270" />
    <vehicle id="32_271" route="32" depart="271" />
    <vehicle id="33_278" route="33" depart="278" />
    <vehicle id="34_290" route="34" depart="290" />
    <vehicle id="35_296" route="35" depart="296" />
    <vehicle id="36_309" route="36" depart="309" />
    <vehicle id="37_321" route="37" depart="321" />
    <vehicle id="38_331" route="38" depart="331" />
    <vehicle id="39_337" route="39" depart="337" />
    <vehicle id="40_341" route="40" depart="341" />
    <vehicle id="41_362" route="41" depart="362" />
    <vehicle id="42_363" route="42" depart="363" />
    <vehicle id="43_370" route="43" depart="370" />
    <vehicle id="44_376" route="44" depart="376" />
    <vehicle id="45_378" route="45" depart="378" />
    <vehicle id="46_391" route="46" depart="391" />
    <vehicle id="47_394" route="47" depart="394" />
    <vehicle id="48_395" route="48" depart="395" />
    <vehicle id="49_405" route="49" depart="405" />
    <vehicle id="50_407" route="50" depart="407" />
    <vehicle id="51_454" route="51" depart="454" />
    <vehicle id="52_474" route="52" depart="474" />
    <vehicle id="53_497" route="53" depart="497" />
    <vehicle id="54_511" route="54" depart="511" />
    <vehicle id="55_513" route="55" depart="513" />
    <vehicle id="56_526" route="56" depart="526" />
    <vehicle id="57_528" route="57" depart="528" />
    <vehicle id="58_584" route="58" depart="584" />
    <vehicle id="59_592" route="59" depart="592" />
    <vehicle id="60_597" route="60" depart="597" />
    <vehicle id="61_599" route="61" depart="599" />
    <vehicle id="62_620" route="62" depart="620" />
    <vehicle id="63_631" route="63" depart="631" />
    <vehicle id="64_650" route="64" depart="650" />
    <vehicle id="65_669" route="65" depart="669" />
    <vehicle id="66_685" route="66" depart="685" />
    <vehicle id="67_691" route="67" depart="691" />
    <vehicle id="68_708" route="68" depart="708" />
    <vehicle id="69_709" route="69" depart="709" />
    <vehicle id="70_710" route="70" depart="710" />
    <vehicle id="71_713" route="71" depart="713" />
    <vehicle id="72_717" route="72" depart="717" />
    <vehicle id="73_726" route="73" depart="726" />
    <vehicle id="74_739" route="74" depart="739" />
    <vehicle id="75_740" route="75" depart="740" />
    <vehicle id="76_745" route="76" depart="745" />
    <vehicle id="77_747" route="77" depart="747" />
    <vehicle id="78_752" route="78" depart="752" />
    <vehicle id="79_775" route="79" depart="775" />
    <vehicle id="80_782" route="80" depart="782" />
    <vehicle id="81_787" route="81" depart="787" />
    <vehicle id="82_794" route="82" depart="794" />
    <vehicle id="83_800" route="83" depart="800" />
    <vehicle id="84_803" route="84" depart="803" />
    <vehicle id="85_819" route="85" depart="819" />
    <vehicle id="86_835" route="86" depart="835" />
    <vehicle id="87_850" route="87" depart="850" />
    <vehicle id="88_866" route="88" depart="866" />
    <vehicle id="89_881" route="89" depart="881" />
    <vehicle id="90_887" route="90" depart="887" />
    <vehicle id="91_908" route="91" depart="908" />
    <vehicle id="92_913" route="92" depart="913" />
    <vehicle id="93_921" route="93" depart="921" />
    <vehicle id="94_922" route="94" depart="922" />
    <vehicle id="95_932" route="95" depart="932" />
    <vehicle id="96_937" route="96" depart="937" />
    <vehicle id="97_947" route="97" depart="947" />
    <vehicle id="98_960" route="98" depart="960" />
    <vehicle id="99_965" route="99" depart="965" />
    <vehicle id="100_969" route="100" depart="969" />
    <vehicle id="101_975" route="101" depart="975" />
    <vehicle id="102_983" route="102" depart="983" />
    <vehicle id="103_984" route="103" depart="984" />
    <vehicle id="104_985" route="104" depart="985" />
    <vehicle id="105_1029" route="105" depart="1029" />
    <vehicle id="106_1034" route="106" depart="1034" />
    <vehicle id="107_1041" route="107" depart="1041" />
    <vehicle id="108_1042" route="108" depart="1042" />
    <vehicle id="109_1057" route="109" depart="1057" />
    <vehicle id="110_1064" route="110" depart="1064" />
    <vehicle id="111_1078" route="111" depart="1078" />
    <vehicle id="112_1081" route="112" depart="1081" />
    <vehicle id="113_1085" route="113" depart="1085" />
    <vehicle id="114_1088" route="114" depart="1088" />
    <vehicle id="115_1089" route="115" depart="1089" />
    <vehicle id="116_1093" route="116" depart="1093" />
    <vehicle id="117_1097" route="117" depart="1097" />
    <vehicle id="118_1099" route="118" depart="1099" />
    <vehicle id="119_1103" route="119" depart="1103" />
    <vehicle id="120_1107" route="120" depart="1107" />
    <vehicle id="121_1123" route="121" depart="1123" />
    <vehicle id="122_1130" route="122" depart="1130" />
    <vehicle id="123_1133" route="123" depart="1133" />
    <vehicle id="124_1138" route="124" depart="1138" />
    <vehicle id="125_1143" route="125" depart="1143" />
    <vehicle id="126_1148" route="126" depart="1148" />
    <vehicle id="127_1161" route="127" depart="1161" />
    <vehicle id="128_1164" route="128" depart="1164" />
    <vehicle id="129_1165" route="129" depart="1165" />
    <vehicle id="130_1168" route="130" depart="1168" />
    <vehicle id="131_1188" route="131" depart="1188" />
    <vehicle id="132_1191" route="132" depart="1191" />
    <vehicle id="133_1204" route="133" depart="1204" />
    <vehicle id="134_1206" route="134" depart="1206" />
    <vehicle id="135_1214" route="135" depart="1214" />
    <vehicle id="136_1224" route="136" depart="1224" />
    <vehicle id="137_1226" route="137" depart="1226" />
    <vehicle id="138_1243" route="138" depart="1243" />
    <vehicle id="139_1256" route="139" depart="1256" />
    <vehicle id="140_1263" route="140" depart="1263" />
    <vehicle id="141_1266" route="141" depart="1266" />
    <vehicle id="142_1285" route="142" depart="1285" />
    <vehicle id="143_1298" route="143" depart="1298" />
    <vehicle id="144_1300" route="144" depart="1300" />
    <vehicle id="145_1325" route="145" depart="1325" />
    <vehicle id="146_1332" route="146" depart="1332" />
    <vehicle id="147_1335" route="147" depart="1335" />
    <vehicle id="148_1338" route="148" depart="1338" />
    <vehicle id="149_1347" route="149" depart="1347" />
    <vehicle id="150_1353" route="150" depart="1353" />
    <vehicle id="151_1358" route="151" depart="1358" />
    <vehicle id="152_1363" route="152" depart="1363" />
    <vehicle id="153_1364" route="153" depart="1364" />
    <vehicle id="154_1398" route="154" depart="1398" />
    <vehicle id="155_1401" route="155" depart="1401" />
    <vehicle id="156_1413" route="156" depart="1413" />
    <vehicle id="157_1416" route="157" depart="1416" />
    <vehicle id="158_1427" route="158" depart="1427" />
    <vehicle id="159_1439" route="159" depart="1439" />
    <vehicle id="160_1440" route="160" depart="1440" />
    <vehicle id="161_1445" route="161" depart="1445" />
    <vehicle id="162_1447" route="162" depart="1447" />
    <vehicle id="163_1474" route="163" depart="1474" />
    <vehicle id="164_1479" route="164" depart="1479" />
    <vehicle id="165_1484" route="165" depart="1484" />
    <vehicle id="166_1485" route="166" depart="1485" />
    <vehicle id="167_1487" route="167" depart="1487" />
    <vehicle id="168_1494" route="168" depart="1494" />
    <vehicle id="169_1506" route="169" depart="1506" />
    <vehicle id="170_1511" route="170" depart="1511" />
    <vehicle id="171_1523" route="171" depart="1523" />
    <vehicle id="172_1538" route="172" depart="1538" />
    <vehicle id="173_1563" route="173" depart="1563" />
    <vehicle id="174_1570" route="174" depart="1570" />
    <vehicle id="175_1575" route="175" depart="1575" />
    <vehicle id="176_1615" route="176" depart="1615" />
    <vehicle id="177_1625" route="177" depart="1625" />
    <vehicle id="178_1644" route="178" depart="1644" />
    <vehicle id="179_1647" route="179" depart="1647" />
    <vehicle id="180_1666" route="180" depart="1666" />
    <vehicle id="181_1673" route="181" depart="1673" />
    <vehicle id="182_1680" route="182" depart="1680" />
    <vehicle id="183_1688" route="183" depart="1688" />
    <vehicle id="184_1719" route="184" depart="1719" />
    <vehicle id="185_1734" route="185" depart="1734" />
    <vehicle id="186_1737" route="186" depart="1737" />
    <vehicle id="187_1742" route="187" depart="1742" />
    <vehicle id="188_1746" route="188" depart="1746" />
    <vehicle id="189_1768" route="189" depart="1768" />
    <vehicle id="190_1775" route="190" depart="1775" />
    <vehicle id="191_1783" route="191" depart="1783" />
    <vehicle id="192_1790" route="192" depart="1790" />
    <vehicle id="193_1792" route="193" depart="1792" />
    <vehicle id="194_1804" route="194" depart="1804" />
    <vehicle id="195_1816" route="195" depart="1816" />
    <vehicle id="196_1831" route="196" depart="1831" />
    <vehicle id="197_1838" route="197" depart="1838" />
    <vehicle id="198_1839" route="198" depart="1839" />
    <vehicle id="199_1861" route="199" depart="1861" />
    <vehicle id="200_1872" route="200" depart="1872" />
    <vehicle id="201_1876" route="201" depart="1876" />
    <vehicle id="202_1879" route="202" depart="1879" />
    <vehicle id="203_1880" route="203" depart="1880" />
    <vehicle id="204_1882" route="204" depart="1882" />
    <vehicle id="205_1884" route="205" depart="1884" />
    <vehicle id="206_1900" route="206" depart="1900" />
    <vehicle id="207_1921" route="207" depart="1921" />
    <vehicle id="208_1930" route="208" depart="1930" />
    <vehicle id="209_1941" route="209" depart="1941" />
    <vehicle id="210_1950" route="210" depart="1950" />
    <vehicle id="211_1960" route="211" depart="1960" />
    <vehicle id="212_1966" route="212" depart="1966" />
    <vehicle id="213_1970" route="213" depart="1970" />
    <vehicle id="214_1982" route="214" depart="1982" />
    <vehicle id="215_1989" route="215" depart="1989" />
    <vehicle id="216_2001" route="216" depart="2001" />
    <vehicle id="217_2019" route="217" depart="2019" />
    <vehicle id="218_2030" route="218" depart="2030" />
    <vehicle id="219_2035" route="219" depart="2035" />
    <vehicle id="220_2057" route="220" depart="2057" />
    <vehicle id="221_2060" route="221" depart="2060" />
    <vehicle id="222_2071" route="222" depart="2071" />
    <vehicle id="223_2097" route="223" depart="2097" />
    <vehicle id="224_2098" route="224" depart="2098" />
    <vehicle id="225_2104" route="225" depart="2104" />
    <vehicle id="226_2108" route="226" depart="2108" />
    <vehicle id="227_2131" route="227" depart="2131" />
    <vehicle id="228_2135" route="228" depart="2135" />
    <vehicle id="229_2145" route="229" depart="2145" />
    <vehicle id="230_2156" route="230" depart="2156" />
    <vehicle id="231_2167" route="231" depart="2167" />
    <vehicle id="232_2169" route="232" depart="2169" />
    <vehicle id="233_2198" route="233" depart="2198" />
    <vehicle id="234_2236" route="234" depart="2236" />
    <vehicle id="235_2247" route="235" depart="2247" />
    <vehicle id="236_2278" route="236" depart="2278" />
    <vehicle id="237_2281" route="237" depart="2281" />
    <vehicle id="238_2288" route="238" depart="2288" />
    <vehicle id="239_2297" route="239" depart="2297" />
    <vehicle id="240_2322" route="240" depart="2322" />
    <vehicle id="241_2341" route="241" depart="2341" />
    <vehicle id="242_2342" route="242" depart="2342" />
    <vehicle id="243_2344" route="243" depart="2344" />
    <vehicle id="244_2359" route="244" depart="2359" />
    <vehicle id="245_2378" route="245" depart="2378" />
    <vehicle id="246_2385" route="246" depart="2385" />
    <vehicle id="247_2390" route="247" depart="2390" />
    <vehicle id="248_2394" route="248" depart="2394" />
    <vehicle id="249_2406" route="249" depart="2406" />
    <vehicle id="250_2407" route="250" depart="2407" />
    <vehicle id="251_2408" route="251" depart="2408" />
    <vehicle id="252_2409" route="252" depart="2409" />
    <vehicle id="253_2412" route="253" depart="2412" />
    <vehicle id="254_2428" route="254" depart="2428" />
    <vehicle id="255_2432" route="255" depart="2432" />
    <vehicle id="256_2440" route="256" depart="2440" />
    <vehicle id="257_2447" route="257" depart="2447" />
    <vehicle id="258_2448" route="258" depart="2448" />
    <vehicle id="259_2458" route="259" depart="2458" />
    <vehicle id="260_2478" route="260" depart="2478" />
    <vehicle id="261_2485" route="261" depart="2485" />
    <vehicle id="262_2515" route="262" depart="2515" />
    <vehicle id="263_2519" route="263" depart="2519" />
    <vehicle id="264_2530" route="264" depart="2530" />
    <vehicle id="265_2532" route="265" depart="2532" />
    <vehicle id="266_2534" route="266" depart="2534" />
    <vehicle id="267_2539" route="267" depart="2539" />
    <vehicle id="268_2545" route="268" depart="2545" />
    <vehicle id="269_2548" route="269" depart="2548" />
    <vehicle id="270_2559" route="270" depart="2559" />
    <vehicle id="271_2577" route="271" depart="2577" />
    <vehicle id="272_2578" route="272" depart="2578" />
    <vehicle id="273_2582" route="273" depart="2582" />
    <vehicle id="274_2585" route="274" depart="2585" />
    <vehicle id="275_2586" route="275" depart="2586" />
    <vehicle id="276_2602" route="276" depart="2602" />
    <vehicle id="277_2611" route="277" depart="2611" />
    <vehicle id="278_2639" route="278" depart="2639" />
    <vehicle id="279_2647" route="279" depart="2647" />
    <vehicle id="280_2659" route="280" depart="2659" />
    <vehicle id="281_2660" route="281" depart="2660" />
    <vehicle id="282_2662" route="282" depart="2662" />
    <vehicle id="283_2664" route="283" depart="2664" />
    <vehicle id="284_2673" route="284" depart="2673" />
    <vehicle id="285_2677" route="285" depart="2677" />
    <vehicle id="286_2723" route="286" depart="2723" />
    <vehicle id="287_2739" route="287" depart="2739" />
    <vehicle id="288_2754" route="288" depart="2754" />
    <vehicle id="289_2759" route="289" depart="2759" />
    <vehicle id="290_2763" route="290" depart="2763" />
    <vehicle id="291_2765" route="291" depart="2765" />
    <vehicle id="292_2775" route="292" depart="2775" />
    <vehicle id="293_2776" route="293" depart="2776" />
    <vehicle id="294_2777" route="294" depart="2777" />
    <vehicle id="295_2783" route="295" depart="2783" />
    <vehicle id="296_2784" route="296" depart="2784" />
    <vehicle id="297_2795" route="297" depart="2795" />
    <vehicle id="298_2796" route="298" depart="2796" />
    <vehicle id="299_2799" route="299" depart="2799" />
    <vehicle id="300_2810" route="300" depart="2810" />
    <vehicle id="301_2817" route="301" depart="2817" />
    <vehicle id="302_2824" route="302" depart="2824" />
    <vehicle id="303_2868" route="303" depart="2868" />