<routes>

    <route id="1" edges="6i 7o"/>
    <route id="2" edges="4i 1o 5o"/>
    <route id="3" edges="4i 1o 5o"/>
    <route id="4" edges="4i 1o 5o"/>
    <route id="5" edges="5i 1i 4o"/>
    <route id="6" edges="7i 6o"/>
    <route id="7" edges="5i 1i 4o"/>
    <route id="8" edges="7i 6o"/>
    <route id="9" edges="2i 3o"/>
    <route id="10" edges="2i 3o"/>
    <route id="11" edges="6i 7o"/>
    <route id="12" edges="5i 1i 4o"/>
    <route id="13" edges="5i 1i 4o"/>
    <route id="14" edges="5i 1i 4o"/>
    <route id="15" edges="2i 3o"/>
    <route id="16" edges="6i 7o"/>
    <route id="17" edges="7i 6o"/>
    <route id="18" edges="4i 1o 5o"/>
    <route id="19" edges="7i 6o"/>
    <route id="20" edges="3i 2o"/>
    <route id="21" edges="2i 3o"/>
    <route id="22" edges="5i 1i 4o"/>
    <route id="23" edges="3i 2o"/>
    <route id="24" edges="5i 1i 4o"/>
    <route id="25" edges="5i 1i 4o"/>
    <route id="26" edges="7i 6o"/>
    <route id="27" edges="5i 1i 4o"/>
    <route id="28" edges="7i 6o"/>
    <route id="29" edges="2i 3o"/>
    <route id="30" edges="2i 3o"/>
    <route id="31" edges="4i 1o 5o"/>
    <route id="32" edges="7i 6o"/>
    <route id="33" edges="6i 7o"/>
    <route id="34" edges="3i 2o"/>
    <route id="35" edges="6i 7o"/>
    <route id="36" edges="2i 3o"/>
    <route id="37" edges="3i 2o"/>
    <route id="38" edges="5i 1i 4o"/>
    <route id="39" edges="5i 1i 4o"/>
    <route id="40" edges="4i 1o 5o"/>
    <route id="41" edges="2i 3o"/>
    <route id="42" edges="4i 1o 5o"/>
    <route id="43" edges="6i 7o"/>
    <route id="44" edges="5i 1i 4o"/>
    <route id="45" edges="2i 3o"/>
    <route id="46" edges="6i 7o"/>
    <route id="47" edges="7i 6o"/>
    <route id="48" edges="5i 1i 4o"/>
    <route id="49" edges="2i 3o"/>
    <route id="50" edges="4i 1o 5o"/>
    <route id="51" edges="3i 2o"/>
    <route id="52" edges="6i 7o"/>
    <route id="53" edges="7i 6o"/>
    <route id="54" edges="2i 3o"/>
    <route id="55" edges="3i 2o"/>
    <route id="56" edges="2i 3o"/>
    <route id="57" edges="3i 2o"/>
    <route id="58" edges="2i 3o"/>
    <route id="59" edges="3i 2o"/>
    <route id="60" edges="7i 6o"/>
    <route id="61" edges="4i 1o 5o"/>
    <route id="62" edges="5i 1i 4o"/>
    <route id="63" edges="7i 6o"/>
    <route id="64" edges="6i 7o"/>
    <route id="65" edges="5i 1i 4o"/>
    <route id="66" edges="2i 3o"/>
    <route id="67" edges="4i 1o 5o"/>
    <route id="68" edges="7i 6o"/>
    <route id="69" edges="3i 2o"/>
    <route id="70" edges="2i 3o"/>
    <route id="71" edges="3i 2o"/>
    <route id="72" edges="6i 7o"/>
    <route id="73" edges="6i 7o"/>
    <route id="74" edges="7i 6o"/>
    <route id="75" edges="2i 3o"/>
    <route id="76" edges="2i 3o"/>
    <route id="77" edges="2i 3o"/>
    <route id="78" edges="5i 1i 4o"/>
    <route id="79" edges="4i 1o 5o"/>
    <route id="80" edges="4i 1o 5o"/>
    <route id="81" edges="2i 3o"/>
    <route id="82" edges="4i 1o 5o"/>
    <route id="83" edges="2i 3o"/>
    <route id="84" edges="4i 1o 5o"/>
    <route id="85" edges="4i 1o 5o"/>
    <route id="86" edges="6i 7o"/>
    <route id="87" edges="2i 3o"/>
    <route id="88" edges="7i 6o"/>
    <route id="89" edges="4i 1o 5o"/>
    <route id="90" edges="3i 2o"/>
    <route id="91" edges="2i 3o"/>
    <route id="92" edges="6i 7o"/>
    <route id="93" edges="6i 7o"/>
    <route id="94" edges="6i 7o"/>
    <route id="95" edges="2i 3o"/>
    <route id="96" edges="3i 2o"/>
    <route id="97" edges="4i 1o 5o"/>
    <route id="98" edges="4i 1o 5o"/>
    <route id="99" edges="5i 1i 4o"/>
    <route id="100" edges="6i 7o"/>
    <route id="101" edges="2i 3o"/>
    <route id="102" edges="3i 2o"/>
    <route id="103" edges="4i 1o 5o"/>
    <route id="104" edges="7i 6o"/>
    <route id="105" edges="4i 1o 5o"/>
    <route id="106" edges="6i 7o"/>
    <route id="107" edges="5i 1i 4o"/>
    <route id="108" edges="5i 1i 4o"/>
    <route id="109" edges="6i 7o"/>
    <route id="110" edges="6i 7o"/>
    <route id="111" edges="4i 1o 5o"/>
    <route id="112" edges="4i 1o 5o"/>
    <route id="113" edges="3i 2o"/>
    <route id="114" edges="6i 7o"/>
    <route id="115" edges="5i 1i 4o"/>
    <route id="116" edges="4i 1o 5o"/>
    <route id="117" edges="2i 3o"/>
    <route id="118" edges="2i 3o"/>
    <route id="119" edges="4i 1o 5o"/>
    <route id="120" edges="5i 1i 4o"/>
    <route id="121" edges="5i 1i 4o"/>
    <route id="122" edges="2i 3o"/>
    <route id="123" edges="2i 3o"/>
    <route id="124" edges="4i 1o 5o"/>
    <route id="125" edges="2i 3o"/>
    <route id="126" edges="2i 3o"/>
    <route id="127" edges="7i 6o"/>
    <route id="128" edges="6i 7o"/>
    <route id="129" edges="2i 3o"/>
    <route id="130" edges="5i 1i 4o"/>
    <route id="131" edges="2i 3o"/>
    <route id="132" edges="7i 6o"/>
    <route id="133" edges="7i 6o"/>
    <route id="134" edges="2i 3o"/>
    <route id="135" edges="3i 2o"/>
    <route id="136" edges="2i 3o"/>
    <route id="137" edges="4i 1o 5o"/>
    <route id="138" edges="4i 1o 5o"/>
    <route id="139" edges="5i 1i 4o"/>
    <route id="140" edges="4i 1o 5o"/>
    <route id="141" edges="2i 3o"/>
    <route id="142" edges="4i 1o 5o"/>
    <route id="143" edges="2i 3o"/>
    <route id="144" edges="5i 1i 4o"/>
    <route id="145" edges="5i 1i 4o"/>
    <route id="146" edges="2i 3o"/>
    <route id="147" edges="5i 1i 4o"/>
    <route id="148" edges="5i 1i 4o"/>
    <route id="149" edges="3i 2o"/>
    <route id="150" edges="5i 1i 4o"/>
    <route id="151" edges="3i 2o"/>
    <route id="152" edges="5i 1i 4o"/>
    <route id="153" edges="5i 1i 4o"/>
    <route id="154" edges="4i 1o 5o"/>
    <route id="155" edges="5i 1i 4o"/>
    <route id="156" edges="3i 2o"/>
    <route id="157" edges="5i 1i 4o"/>
    <route id="158" edges="2i 3o"/>
    <route id="159" edges="6i 7o"/>
    <route id="160" edges="4i 1o 5o"/>
    <route id="161" edges="6i 7o"/>
    <route id="162" edges="4i 1o 5o"/>
    <route id="163" edges="2i 3o"/>
    <route id="164" edges="6i 7o"/>
    <route id="165" edges="6i 7o"/>
    <route id="166" edges="4i 1o 5o"/>
    <route id="167" edges="6i 7o"/>
    <route id="168" edges="5i 1i 4o"/>
    <route id="169" edges="6i 7o"/>
    <route id="170" edges="6i 7o"/>
    <route id="171" edges="7i 6o"/>
    <route id="172" edges="4i 1o 5o"/>
    <route id="173" edges="5i 1i 4o"/>
    <route id="174" edges="7i 6o"/>
    <route id="175" edges="5i 1i 4o"/>
    <route id="176" edges="3i 2o"/>
    <route id="177" edges="4i 1o 5o"/>
    <route id="178" edges="5i 1i 4o"/>
    <route id="179" edges="5i 1i 4o"/>
    <route id="180" edges="6i 7o"/>
    <route id="181" edges="2i 3o"/>
    <route id="182" edges="6i 7o"/>
    <route id="183" edges="2i 3o"/>
    <route id="184" edges="2i 3o"/>
    <route id="185" edges="2i 3o"/>
    <route id="186" edges="3i 2o"/>
    <route id="187" edges="2i 3o"/>
    <route id="188" edges="7i 6o"/>
    <route id="189" edges="4i 1o 5o"/>
    <route id="190" edges="5i 1i 4o"/>
    <route id="191" edges="7i 6o"/>
    <route id="192" edges="2i 3o"/>
    <route id="193" edges="7i 6o"/>
    <route id="194" edges="3i 2o"/>
    <route id="195" edges="7i 6o"/>
    <route id="196" edges="3i 2o"/>
    <route id="197" edges="4i 1o 5o"/>
    <route id="198" edges="2i 3o"/>
    <route id="199" edges="5i 1i 4o"/>
    <route id="200" edges="7i 6o"/>
    <route id="201" edges="4i 1o 5o"/>
    <route id="202" edges="2i 3o"/>
    <route id="203" edges="4i 1o 5o"/>
    <route id="204" edges="2i 3o"/>
    <route id="205" edges="3i 2o"/>
    <route id="206" edges="4i 1o 5o"/>
    <route id="207" edges="6i 7o"/>
    <route id="208" edges="4i 1o 5o"/>
    <route id="209" edges="7i 6o"/>
    <route id="210" edges="3i 2o"/>
    <route id="211" edges="3i 2o"/>
    <route id="212" edges="2i 3o"/>
    <route id="213" edges="3i 2o"/>
    <route id="214" edges="6i 7o"/>
    <route id="215" edges="3i 2o"/>
    <route id="216" edges="3i 2o"/>
    <route id="217" edges="6i 7o"/>
    <route id="218" edges="3i 2o"/>
    <route id="219" edges="4i 1o 5o"/>
    <route id="220" edges="7i 6o"/>
    <route id="221" edges="4i 1o 5o"/>
    <route id="222" edges="2i 3o"/>
    <route id="223" edges="2i 3o"/>
    <route id="224" edges="3i 2o"/>
    <route id="225" edges="3i 2o"/>
    <route id="226" edges="6i 7o"/>
    <route id="227" edges="2i 3o"/>
    <route id="228" edges="5i 1i 4o"/>
    <route id="229" edges="6i 7o"/>
    <route id="230" edges="3i 2o"/>
    <route id="231" edges="6i 7o"/>
    <route id="232" edges="5i 1i 4o"/>
    <route id="233" edges="3i 2o"/>
    <route id="234" edges="7i 6o"/>
    <route id="235" edges="7i 6o"/>
    <route id="236" edges="2i 3o"/>
    <route id="237" edges="7i 6o"/>
    <route id="238" edges="3i 2o"/>
    <route id="239" edges="6i 7o"/>
    <route id="240" edges="4i 1o 5o"/>
    <route id="241" edges="4i 1o 5o"/>
    <route id="242" edges="4i 1o 5o"/>
    <route id="243" edges="5i 1i 4o"/>
    <route id="244" edges="3i 2o"/>
    <route id="245" edges="6i 7o"/>
    <route id="246" edges="2i 3o"/>
    <route id="247" edges="7i 6o"/>
    <route id="248" edges="4i 1o 5o"/>
    <route id="249" edges="4i 1o 5o"/>
    <route id="250" edges="7i 6o"/>
    <route id="251" edges="7i 6o"/>
    <route id="252" edges="7i 6o"/>
    <route id="253" edges="7i 6o"/>
    <route id="254" edges="2i 3o"/>
    <route id="255" edges="7i 6o"/>
    <route id="256" edges="6i 7o"/>
    <route id="257" edges="7i 6o"/>
    <route id="258" edges="5i 1i 4o"/>
    <route id="259" edges="5i 1i 4o"/>
    <route id="260" edges="5i 1i 4o"/>
    <route id="261" edges="7i 6o"/>
    <route id="262" edges="4i 1o 5o"/>
    <route id="263" edges="5i 1i 4o"/>
    <route id="264" edges="6i 7o"/>
    <route id="265" edges="5i 1i 4o"/>
    <route id="266" edges="2i 3o"/>
    <route id="267" edges="3i 2o"/>
    <route id="268" edges="3i 2o"/>
    <route id="269" edges="7i 6o"/>
    <route id="270" edges="4i 1o 5o"/>
    <route id="271" edges="2i 3o"/>
    <route id="272" edges="6i 7o"/>
    <route id="273" edges="3i 2o"/>
    <route id="274" edges="4i 1o 5o"/>
    <route id="275" edges="4i 1o 5o"/>
    <route id="276" edges="4i 1o 5o"/>
    <route id="277" edges="2i 3o"/>
    <route id="278" edges="4i 1o 5o"/>
    <route id="279" edges="4i 1o 5o"/>
    <route id="280" edges="3i 2o"/>
    <route id="281" edges="2i 3o"/>
    <route id="282" edges="5i 1i 4o"/>
    <route id="283" edges="4i 1o 5o"/>
    <route id="284" edges="5i 1i 4o"/>
    <route id="285" edges="5i 1i 4o"/>
    <route id="286" edges="3i 2o"/>
    <route id="287" edges="3i 2o"/>
    <route id="288" edges="5i 1i 4o"/>
    <route id="289" edges="7i 6o"/>
    <route id="290" edges="7i 6o"/>
    <route id="291" edges="5i 1i 4o"/>
    <route id="292" edges="4i 1o 5o"/>
    <route id="293" edges="3i 2o"/>
    <route id="294" edges="3i 2o"/>
    <route id="295" edges="3i 2o"/>
    <route id="296" edges="4i 1o 5o"/>
    <route id="297" edges="7i 6o"/>
    <route id="298" edges="4i 1o 5o"/>
    <route id="299" edges="3i 2o"/>
    <route id="300" edges="4i 1o 5o"/>
    <route id="301" edges="4i 1o 5o"/>
    <route id="302" edges="6i 7o"/>
    <route id="303" edges="3i 2o"/>
    <route id="304" edges="5i 1i 4o"/>
    <route id="305" edges="2i 3o"/>
    <route id="306" edges="3i 2o"/>
    <route id="307" edges="7i 6o"/>
    <route id="308" edges="7i 6o"/>
    <route id="309" edges="4i 1o 5o"/>
    <route id="310" edges="3i 2o"/>
    <route id="311" edges="6i 7o"/>
    <route id="312" edges="6i 7o"/>
    <route id="313" edges="6i 7o"/>
    <route id="314" edges="2i 3o"/>
    <route id="315" edges="6i 7o"/>
    <route id="316" edges="6i 7o"/>
    <route id="317" edges="4i 1o 5o"/>
    <route id="318" edges="2i 3o"/>
    <route id="319" edges="4i 1o 5o"/>
    <route id="320" edges="5i 1i 4o"/>
    <route id="321" edges="4i 1o 5o"/>
    <route id="322" edges="7i 6o"/>
    <route id="323" edges="3i 2o"/>
    <route id="324" edges="2i 3o"/>
    <route id="325" edges="2i 3o"/>
    <route id="326" edges="2i 3o"/>
    <route id="327" edges="7i 6o"/>
    <route id="328" edges="2i 3o"/>
    <route id="329" edges="2i 3o"/>
    <route id="330" edges="5i 1i 4o"/>
    <route id="331" edges="3i 2o"/>
    <route id="332" edges="6i 7o"/>
    <route id="333" edges="7i 6o"/>
    <route id="334" edges="2i 3o"/>
    <route id="335" edges="5i 1i 4o"/>
    <route id="336" edges="3i 2o"/>
    <route id="337" edges="5i 1i 4o"/>
    <route id="338" edges="3i 2o"/>
    <route id="339" edges="3i 2o"/>
    <route id="340" edges="5i 1i 4o"/>
    <route id="341" edges="5i 1i 4o"/>
    <route id="342" edges="7i 6o"/>
    <route id="343" edges="4i 1o 5o"/>
    <route id="344" edges="5i 1i 4o"/>
    <route id="345" edges="7i 6o"/>
    <route id="346" edges="6i 7o"/>
    <route id="347" edges="7i 6o"/>
    <route id="348" edges="3i 2o"/>
    <route id="349" edges="3i 2o"/>
    <route id="350" edges="5i 1i 4o"/>
    <route id="351" edges="2i 3o"/>
    <route id="352" edges="3i 2o"/>
    <route id="353" edges="7i 6o"/>
    <route id="354" edges="6i 7o"/>
    <route id="355" edges="7i 6o"/>
    <route id="356" edges="7i 6o"/>
    <route id="357" edges="6i 7o"/>
    <route id="358" edges="3i 2o"/>
    <route id="359" edges="4i 1o 5o"/>
    <route id="360" edges="2i 3o"/>
    <route id="361" edges="7i 6o"/>
    <route id="362" edges="7i 6o"/>
    <route id="363" edges="7i 6o"/>
    <route id="364" edges="4i 1o 5o"/>
    <route id="365" edges="3i 2o"/>
    <route id="366" edges="3i 2o"/>
    <route id="367" edges="3i 2o"/>
    <route id="368" edges="7i 6o"/>
    <route id="369" edges="7i 6o"/>
    <route id="370" edges="5i 1i 4o"/>
    <route id="371" edges="3i 2o"/>
    <route id="372" edges="3i 2o"/>
    <route id="373" edges="3i 2o"/>
    <route id="374" edges="5i 1i 4o"/>
    <route id="375" edges="5i 1i 4o"/>
    <route id="376" edges="6i 7o"/>
    <route id="377" edges="3i 2o"/>
    <route id="378" edges="4i 1o 5o"/>
    <route id="379" edges="4i 1o 5o"/>
    <route id="380" edges="3i 2o"/>
    <route id="381" edges="4i 1o 5o"/>
    <route id="382" edges="4i 1o 5o"/>
    <route id="383" edges="6i 7o"/>
    <route id="384" edges="7i 6o"/>
    <route id="385" edges="5i 1i 4o"/>
    <route id="386" edges="3i 2o"/>
    <route id="387" edges="4i 1o 5o"/>
    <route id="388" edges="2i 3o"/>
    <route id="389" edges="7i 6o"/>
    <route id="390" edges="7i 6o"/>
    <route id="391" edges="4i 1o 5o"/>
    <route id="392" edges="5i 1i 4o"/>
    <route id="393" edges="6i 7o"/>
    <route id="394" edges="2i 3o"/>
    <route id="395" edges="3i 2o"/>
    <route id="396" edges="7i 6o"/>
    <route id="397" edges="2i 3o"/>
    <route id="398" edges="3i 2o"/>
    <route id="399" edges="6i 7o"/>
    <route id="400" edges="4i 1o 5o"/>
    <route id="401" edges="7i 6o"/>
    <route id="402" edges="5i 1i 4o"/>
    <route id="403" edges="4i 1o 5o"/>
    <route id="404" edges="2i 3o"/>
    <route id="405" edges="7i 6o"/>
    <route id="406" edges="5i 1i 4o"/>
    <route id="407" edges="7i 6o"/>
    <route id="408" edges="5i 1i 4o"/>
    <route id="409" edges="6i 7o"/>
    <route id="410" edges="3i 2o"/>
    <route id="411" edges="3i 2o"/>
    <route id="412" edges="4i 1o 5o"/>
    <route id="413" edges="6i 7o"/>
    <route id="414" edges="2i 3o"/>
    <route id="415" edges="4i 1o 5o"/>
    <route id="416" edges="6i 7o"/>
    <route id="417" edges="7i 6o"/>
    <route id="418" edges="2i 3o"/>
    <route id="419" edges="5i 1i 4o"/>
    <route id="420" edges="7i 6o"/>
    <route id="421" edges="7i 6o"/>
    <route id="422" edges="5i 1i 4o"/>
    <route id="423" edges="5i 1i 4o"/>
    <route id="424" edges="3i 2o"/>
    <route id="425" edges="5i 1i 4o"/>
    <route id="426" edges="7i 6o"/>
    <route id="427" edges="5i 1i 4o"/>
    <route id="428" edges="3i 2o"/>
    <route id="429" edges="7i 6o"/>
    <route id="430" edges="2i 3o"/>
    <route id="431" edges="6i 7o"/>
    <route id="432" edges="3i 2o"/>
    <route id="433" edges="5i 1i 4o"/>
    <route id="434" edges="7i 6o"/>
    <route id="435" edges="6i 7o"/>
    <route id="436" edges="5i 1i 4o"/>
    <route id="437" edges="5i 1i 4o"/>
    <route id="438" edges="2i 3o"/>
    <route id="439" edges="2i 3o"/>
    <route id="440" edges="7i 6o"/>
    <route id="441" edges="4i 1o 5o"/>
    <route id="442" edges="2i 3o"/>
    <route id="443" edges="6i 7o"/>
    <route id="444" edges="5i 1i 4o"/>
    <route id="445" edges="3i 2o"/>
    <route id="446" edges="3i 2o"/>
    <route id="447" edges="6i 7o"/>
    <route id="448" edges="2i 3o"/>
    <route id="449" edges="5i 1i 4o"/>
    <route id="450" edges="3i 2o"/>
    <route id="451" edges="2i 3o"/>
    <route id="452" edges="4i 1o 5o"/>
    <route id="453" edges="7i 6o"/>
    <route id="454" edges="6i 7o"/>
    <route id="455" edges="4i 1o 5o"/>
    <route id="456" edges="2i 3o"/>
    <route id="457" edges="2i 3o"/>
    <route id="458" edges="6i 7o"/>
    <route id="459" edges="6i 7o"/>
    <route id="460" edges="3i 2o"/>
    <route id="461" edges="4i 1o 5o"/>
    <route id="462" edges="3i 2o"/>
    <route id="463" edges="3i 2o"/>
    <route id="464" edges="4i 1o 5o"/>
    <route id="465" edges="3i 2o"/>
    <route id="466" edges="3i 2o"/>
    <route id="467" edges="6i 7o"/>
    <route id="468" edges="4i 1o 5o"/>
    <route id="469" edges="4i 1o 5o"/>
    <route id="470" edges="6i 7o"/>
    <route id="471" edges="4i 1o 5o"/>
    <route id="472" edges="5i 1i 4o"/>
    <route id="473" edges="3i 2o"/>
    <route id="474" edges="3i 2o"/>
    <route id="475" edges="3i 2o"/>
    <route id="476" edges="5i 1i 4o"/>
    <route id="477" edges="4i 1o 5o"/>
    <route id="478" edges="7i 6o"/>
    <route id="479" edges="5i 1i 4o"/>
    <route id="480" edges="6i 7o"/>
    <route id="481" edges="5i 1i 4o"/>
    <route id="482" edges="7i 6o"/>
    <route id="483" edges="7i 6o"/>
    <route id="484" edges="4i 1o 5o"/>
    <route id="485" edges="7i 6o"/>
    <route id="486" edges="6i 7o"/>
    <route id="487" edges="7i 6o"/>
    <route id="488" edges="7i 6o"/>
    <route id="489" edges="4i 1o 5o"/>
    <route id="490" edges="5i 1i 4o"/>
    <route id="491" edges="7i 6o"/>
    <route id="492" edges="5i 1i 4o"/>
    <route id="493" edges="3i 2o"/>
    <route id="494" edges="6i 7o"/>
    <route id="495" edges="3i 2o"/>
    <route id="496" edges="7i 6o"/>
    <route id="497" edges="2i 3o"/>
    <route id="498" edges="5i 1i 4o"/>
    <route id="499" edges="3i 2o"/>
    <route id="500" edges="7i 6o"/>
    <route id="501" edges="7i 6o"/>
    <route id="502" edges="2i 3o"/>
    <route id="503" edges="7i 6o"/>
    <route id="504" edges="4i 1o 5o"/>
    <route id="505" edges="7i 6o"/>
    <route id="506" edges="5i 1i 4o"/>
    <route id="507" edges="6i 7o"/>
    <route id="508" edges="5i 1i 4o"/>
    <route id="509" edges="2i 3o"/>
    <route id="510" edges="7i 6o"/>
    <route id="511" edges="5i 1i 4o"/>
    <route id="512" edges="2i 3o"/>
    <route id="513" edges="5i 1i 4o"/>
    <route id="514" edges="4i 1o 5o"/>
    <route id="515" edges="5i 1i 4o"/>
    <route id="516" edges="4i 1o 5o"/>
    <route id="517" edges="6i 7o"/>
    <route id="518" edges="4i 1o 5o"/>
    <route id="519" edges="3i 2o"/>
    <route id="520" edges="5i 1i 4o"/>
    <route id="521" edges="6i 7o"/>
    <route id="522" edges="5i 1i 4o"/>
    <route id="523" edges="6i 7o"/>
    <route id="524" edges="3i 2o"/>
    <route id="525" edges="3i 2o"/>
    <route id="526" edges="6i 7o"/>
    <route id="527" edges="5i 1i 4o"/>
    <route id="528" edges="2i 3o"/>
    <route id="529" edges="5i 1i 4o"/>
    <route id="530" edges="5i 1i 4o"/>
    <route id="531" edges="4i 1o 5o"/>
    <route id="532" edges="6i 7o"/>
    <route id="533" edges="4i 1o 5o"/>
    <route id="534" edges="2i 3o"/>
    <route id="535" edges="4i 1o 5o"/>
    <route id="536" edges="3i 2o"/>
    <route id="537" edges="5i 1i 4o"/>
    <route id="538" edges="5i 1i 4o"/>
    <route id="539" edges="3i 2o"/>
    <route id="540" edges="6i 7o"/>
    <route id="541" edges="7i 6o"/>
    <route id="542" edges="2i 3o"/>
    <route id="543" edges="6i 7o"/>
    <route id="544" edges="5i 1i 4o"/>
    <route id="545" edges="5i 1i 4o"/>
    <route id="546" edges="7i 6o"/>
    <route id="547" edges="3i 2o"/>
    <route id="548" edges="4i 1o 5o"/>
    <route id="549" edges="5i 1i 4o"/>
    <route id="550" edges="2i 3o"/>
    <route id="551" edges="6i 7o"/>
    <route id="552" edges="7i 6o"/>
    <route id="553" edges="6i 7o"/>
    <route id="554" edges="2i 3o"/>
    <route id="555" edges="4i 1o 5o"/>
    <route id="556" edges="3i 2o"/>
    <route id="557" edges="2i 3o"/>
    <route id="558" edges="2i 3o"/>
    <route id="559" edges="3i 2o"/>
    <route id="560" edges="5i 1i 4o"/>
    <route id="561" edges="4i 1o 5o"/>
    <route id="562" edges="5i 1i 4o"/>
    <route id="563" edges="4i 1o 5o"/>
    <route id="564" edges="3i 2o"/>
    <route id="565" edges="3i 2o"/>
    <route id="566" edges="5i 1i 4o"/>
    <route id="567" edges="6i 7o"/>
    <route id="568" edges="7i 6o"/>
    <route id="569" edges="3i 2o"/>
    <route id="570" edges="4i 1o 5o"/>
    <route id="571" edges="6i 7o"/>
    <route id="572" edges="5i 1i 4o"/>
    <route id="573" edges="2i 3o"/>
    <route id="574" edges="2i 3o"/>
    <route id="575" edges="4i 1o 5o"/>
    <route id="576" edges="7i 6o"/>
    <route id="577" edges="6i 7o"/>
    <route id="578" edges="7i 6o"/>
    <route id="579" edges="3i 2o"/>
    <route id="580" edges="3i 2o"/>
    <route id="581" edges="6i 7o"/>
    <route id="582" edges="2i 3o"/>
    <route id="583" edges="6i 7o"/>
    <route id="584" edges="3i 2o"/>
    <route id="585" edges="4i 1o 5o"/>
    <route id="586" edges="3i 2o"/>
    <route id="587" edges="7i 6o"/>
    <route id="588" edges="2i 3o"/>
    <route id="589" edges="4i 1o 5o"/>
    <route id="590" edges="6i 7o"/>
    <route id="591" edges="6i 7o"/>
    <route id="592" edges="2i 3o"/>
    <route id="593" edges="3i 2o"/>
    <route id="594" edges="2i 3o"/>
    <route id="595" edges="2i 3o"/>
    <route id="596" edges="3i 2o"/>
    <route id="597" edges="6i 7o"/>
    <route id="598" edges="6i 7o"/>
    <route id="599" edges="6i 7o"/>
    <route id="600" edges="3i 2o"/>
    <route id="601" edges="6i 7o"/>
    <route id="602" edges="4i 1o 5o"/>
    <route id="603" edges="3i 2o"/>
    <route id="604" edges="5i 1i 4o"/>
    <route id="605" edges="6i 7o"/>
    <route id="606" edges="4i 1o 5o"/>
    <route id="607" edges="5i 1i 4o"/>
    <route id="608" edges="2i 3o"/>
    <route id="609" edges="2i 3o"/>
    <route id="610" edges="7i 6o"/>
    <route id="611" edges="4i 1o 5o"/>
    <route id="612" edges="6i 7o"/>
    <route id="613" edges="3i 2o"/>
    <route id="614" edges="4i 1o 5o"/>
    <route id="615" edges="6i 7o"/>
    <route id="616" edges="5i 1i 4o"/>
    <route id="617" edges="3i 2o"/>
    <route id="618" edges="7i 6o"/>
    <route id="619" edges="2i 3o"/>
    <route id="620" edges="5i 1i 4o"/>
    <route id="621" edges="2i 3o"/>
    <route id="622" edges="4i 1o 5o"/>
    <route id="623" edges="5i 1i 4o"/>
    <route id="624" edges="2i 3o"/>
    <route id="625" edges="5i 1i 4o"/>
    <route id="626" edges="3i 2o"/>
    <route id="627" edges="2i 3o"/>
    <route id="628" edges="3i 2o"/>
    <route id="629" edges="3i 2o"/>
    <route id="630" edges="2i 3o"/>
    <route id="631" edges="5i 1i 4o"/>
    <route id="632" edges="3i 2o"/>
    <route id="633" edges="4i 1o 5o"/>
    <route id="634" edges="7i 6o"/>
    <route id="635" edges="5i 1i 4o"/>
    <route id="636" edges="6i 7o"/>
    <route id="637" edges="7i 6o"/>
    <route id="638" edges="4i 1o 5o"/>
    <route id="639" edges="4i 1o 5o"/>
    <route id="640" edges="2i 3o"/>
    <route id="641" edges="6i 7o"/>
    <route id="642" edges="2i 3o"/>
    <route id="643" edges="3i 2o"/>
    <route id="644" edges="6i 7o"/>
    <route id="645" edges="2i 3o"/>
    <route id="646" edges="6i 7o"/>
    <route id="647" edges="7i 6o"/>
    <route id="648" edges="2i 3o"/>
    <route id="649" edges="6i 7o"/>
    <route id="650" edges="6i 7o"/>
    <route id="651" edges="6i 7o"/>
    <route id="652" edges="6i 7o"/>
    <route id="653" edges="4i 1o 5o"/>
    <route id="654" edges="6i 7o"/>
    <route id="655" edges="6i 7o"/>
    <route id="656" edges="3i 2o"/>
    <route id="657" edges="3i 2o"/>
    <route id="658" edges="6i 7o"/>
    <route id="659" edges="6i 7o"/>
    <route id="660" edges="5i 1i 4o"/>
    <route id="661" edges="7i 6o"/>
    <route id="662" edges="5i 1i 4o"/>
    <route id="663" edges="7i 6o"/>
    <route id="664" edges="4i 1o 5o"/>
    <route id="665" edges="2i 3o"/>
    <route id="666" edges="3i 2o"/>
    <route id="667" edges="6i 7o"/>
    <route id="668" edges="3i 2o"/>
    <route id="669" edges="3i 2o"/>
    <route id="670" edges="4i 1o 5o"/>
    <route id="671" edges="3i 2o"/>
    <route id="672" edges="2i 3o"/>
    <route id="673" edges="2i 3o"/>
    <route id="674" edges="5i 1i 4o"/>
    <route id="675" edges="2i 3o"/>
    <route id="676" edges="3i 2o"/>
    <route id="677" edges="3i 2o"/>
    <route id="678" edges="5i 1i 4o"/>
    <route id="679" edges="2i 3o"/>
    <route id="680" edges="7i 6o"/>
    <route id="681" edges="2i 3o"/>
    <route id="682" edges="7i 6o"/>
    <route id="683" edges="4i 1o 5o"/>
    <route id="684" edges="7i 6o"/>
    <route id="685" edges="3i 2o"/>
    <route id="686" edges="2i 3o"/>
    <route id="687" edges="5i 1i 4o"/>
    <route id="688" edges="6i 7o"/>
    <route id="689" edges="4i 1o 5o"/>
    <route id="690" edges="2i 3o"/>
    <route id="691" edges="3i 2o"/>
    <route id="692" edges="3i 2o"/>
    <route id="693" edges="5i 1i 4o"/>
    <route id="694" edges="5i 1i 4o"/>
    <route id="695" edges="4i 1o 5o"/>
    <route id="696" edges="7i 6o"/>
    <route id="697" edges="3i 2o"/>
    <route id="698" edges="5i 1i 4o"/>
    <route id="699" edges="6i 7o"/>
    <route id="700" edges="5i 1i 4o"/>
    <route id="701" edges="2i 3o"/>
    <route id="702" edges="6i 7o"/>
    <route id="703" edges="5i 1i 4o"/>
    <route id="704" edges="4i 1o 5o"/>
    <route id="705" edges="6i 7o"/>
    <route id="706" edges="2i 3o"/>
    <route id="707" edges="3i 2o"/>
    <route id="708" edges="4i 1o 5o"/>
    <route id="709" edges="7i 6o"/>
    <route id="710" edges="6i 7o"/>
    <route id="711" edges="5i 1i 4o"/>
    <route id="712" edges="5i 1i 4o"/>
    <route id="713" edges="6i 7o"/>
    <route id="714" edges="2i 3o"/>
    <route id="715" edges="6i 7o"/>
    <route id="716" edges="5i 1i 4o"/>
    <route id="717" edges="3i 2o"/>
    <route id="718" edges="6i 7o"/>
    <route id="719" edges="4i 1o 5o"/>
    <route id="720" edges="6i 7o"/>
    <route id="721" edges="3i 2o"/>
    <route id="722" edges="7i 6o"/>
    <route id="723" edges="5i 1i 4o"/>
    <route id="724" edges="4i 1o 5o"/>
    <route id="725" edges="3i 2o"/>
    <route id="726" edges="6i 7o"/>
    <route id="727" edges="4i 1o 5o"/>
    <route id="728" edges="6i 7o"/>
    <route id="729" edges="6i 7o"/>
    <route id="730" edges="5i 1i 4o"/>
    <route id="731" edges="7i 6o"/>
    <route id="732" edges="4i 1o 5o"/>
    <route id="733" edges="4i 1o 5o"/>
    <route id="734" edges="7i 6o"/>
    <route id="735" edges="5i 1i 4o"/>
    <route id="736" edges="2i 3o"/>
    <route id="737" edges="6i 7o"/>
    <route id="738" edges="3i 2o"/>
    <route id="739" edges="5i 1i 4o"/>
    <route id="740" edges="3i 2o"/>
    <route id="741" edges="3i 2o"/>
    <route id="742" edges="5i 1i 4o"/>
    <route id="743" edges="5i 1i 4o"/>
    <route id="744" edges="5i 1i 4o"/>
    <route id="745" edges="5i 1i 4o"/>
    <route id="746" edges="5i 1i 4o"/>

    <vehicle id="1_2" route="1" depart="2" />
    <vehicle id="2_7" route="2" depart="7" />
    <vehicle id="3_11" route="3" depart="11" />
    <vehicle id="4_13" route="4" depart="13" />
    <vehicle id="5_19" route="5" depart="19" />
    <vehicle id="6_24" route="6" depart="24" />
    <vehicle id="7_31" route="7" depart="31" />
    <vehicle id="8_41" route="8" depart="41" />
    <vehicle id="9_45" route="9" depart="45" />
    <vehicle id="10_55" route="10" depart="55" />
    <vehicle id="11_56" route="11" depart="56" />
    <vehicle id="12_61" route="12" depart="61" />
    <vehicle id="13_65" route="13" depart="65" />
    <vehicle id="14_66" route="14" depart="66" />
    <vehicle id="15_67" route="15" depart="67" />
    <vehicle id="16_69" route="16" depart="69" />
    <vehicle id="17_72" route="17" depart="72" />
    <vehicle id="18_76" route="18" depart="76" />
    <vehicle id="19_89" route="19" depart="89" />
    <vehicle id="20_97" route="20" depart="97" />
    <vehicle id="21_101" route="21" depart="101" />
    <vehicle id="22_103" route="22" depart="103" />
    <vehicle id="23_110" route="23" depart="110" />
    <vehicle id="24_118" route="24" depart="118" />
    <vehicle id="25_122" route="25" depart="122" />
    <vehicle id="26_127" route="26" depart="127" />
    <vehicle id="27_128" route="27" depart="128" />
    <vehicle id="28_129" route="28" depart="129" />
    <vehicle id="29_132" route="29" depart="132" />
    <vehicle id="30_134" route="30" depart="134" />
    <vehicle id="31_135" route="31" depart="135" />
    <vehicle id="32_148" route="32" depart="148" />
    <vehicle id="33_153" route="33" depart="153" />
    <vehicle id="34_154" route="34" depart="154" />
    <vehicle id="35_156" route="35" depart="156" />
    <vehicle id="36_157" route="36" depart="157" />
    <vehicle id="37_167" route="37" depart="167" />
    <vehicle id="38_168" route="38" depart="168" />
    <vehicle id="39_172" route="39" depart="172" />
    <vehicle id="40_191" route="40" depart="191" />
    <vehicle id="41_199" route="41" depart="199" />
    <vehicle id="42_200" route="42" depart="200" />
    <vehicle id="43_211" route="43" depart="211" />
    <vehicle id="44_215" route="44" depart="215" />
    <vehicle id="45_216" route="45" depart="216" />
    <vehicle id="46_232" route="46" depart="232" />
    <vehicle id="47_237" route="47" depart="237" />
    <vehicle id="48_240" route="48" depart="240" />