<routes>

    <route id="1" edges="2i 3o"/>
    <route id="2" edges="5i 1i 4o"/>
    <route id="3" edges="4i 1o 5o"/>
    <route id="4" edges="2i 3o"/>
    <route id="5" edges="3i 2o"/>
    <route id="6" edges="6i 7o"/>
    <route id="7" edges="6i 7o"/>
    <route id="8" edges="7i 6o"/>
    <route id="9" edges="4i 1o 5o"/>
    <route id="10" edges="6i 7o"/>
    <route id="11" edges="7i 6o"/>
    <route id="12" edges="6i 7o"/>
    <route id="13" edges="5i 1i 4o"/>
    <route id="14" edges="3i 2o"/>
    <route id="15" edges="4i 1o 5o"/>
    <route id="16" edges="6i 7o"/>
    <route id="17" edges="5i 1i 4o"/>
    <route id="18" edges="7i 6o"/>
    <route id="19" edges="7i 6o"/>
    <route id="20" edges="7i 6o"/>
    <route id="21" edges="3i 2o"/>
    <route id="22" edges="2i 3o"/>
    <route id="23" edges="6i 7o"/>
    <route id="24" edges="3i 2o"/>
    <route id="25" edges="6i 7o"/>
    <route id="26" edges="7i 6o"/>
    <route id="27" edges="5i 1i 4o"/>
    <route id="28" edges="6i 7o"/>
    <route id="29" edges="5i 1i 4o"/>
    <route id="30" edges="2i 3o"/>
    <route id="31" edges="7i 6o"/>
    <route id="32" edges="7i 6o"/>
    <route id="33" edges="7i 6o"/>
    <route id="34" edges="5i 1i 4o"/>
    <route id="35" edges="3i 2o"/>
    <route id="36" edges="7i 6o"/>
    <route id="37" edges="2i 3o"/>
    <route id="38" edges="6i 7o"/>
    <route id="39" edges="4i 1o 5o"/>
    <route id="40" edges="2i 3o"/>
    <route id="41" edges="3i 2o"/>
    <route id="42" edges="2i 3o"/>
    <route id="43" edges="7i 6o"/>
    <route id="44" edges="3i 2o"/>
    <route id="45" edges="3i 2o"/>
    <route id="46" edges="5i 1i 4o"/>
    <route id="47" edges="7i 6o"/>
    <route id="48" edges="2i 3o"/>
    <route id="49" edges="4i 1o 5o"/>
    <route id="50" edges="6i 7o"/>
    <route id="51" edges="5i 1i 4o"/>
    <route id="52" edges="7i 6o"/>
    <route id="53" edges="4i 1o 5o"/>
    <route id="54" edges="3i 2o"/>
    <route id="55" edges="7i 6o"/>
    <route id="56" edges="6i 7o"/>
    <route id="57" edges="4i 1o 5o"/>
    <route id="58" edges="2i 3o"/>
    <route id="59" edges="2i 3o"/>
    <route id="60" edges="3i 2o"/>
    <route id="61" edges="3i 2o"/>
    <route id="62" edges="3i 2o"/>
    <route id="63" edges="2i 3o"/>
    <route id="64" edges="6i 7o"/>
    <route id="65" edges="7i 6o"/>
    <route id="66" edges="5i 1i 4o"/>
    <route id="67" edges="2i 3o"/>
    <route id="68" edges="6i 7o"/>
    <route id="69" edges="5i 1i 4o"/>
    <route id="70" edges="3i 2o"/>
    <route id="71" edges="7i 6o"/>
    <route id="72" edges="7i 6o"/>
    <route id="73" edges="2i 3o"/>
    <route id="74" edges="2i 3o"/>
    <route id="75" edges="5i 1i 4o"/>
    <route id="76" edges="6i 7o"/>
    <route id="77" edges="2i 3o"/>
    <route id="78" edges="3i 2o"/>
    <route id="79" edges="5i 1i 4o"/>
    <route id="80" edges="7i 6o"/>
    <route id="81" edges="6i 7o"/>
    <route id="82" edges="2i 3o"/>
    <route id="83" edges="6i 7o"/>
    <route id="84" edges="2i 3o"/>
    <route id="85" edges="6i 7o"/>
    <route id="86" edges="6i 7o"/>
    <route id="87" edges="3i 2o"/>
    <route id="88" edges="4i 1o 5o"/>
    <route id="89" edges="4i 1o 5o"/>
    <route id="90" edges="5i 1i 4o"/>
    <route id="91" edges="2i 3o"/>
    <route id="92" edges="3i 2o"/>
    <route id="93" edges="4i 1o 5o"/>
    <route id="94" edges="7i 6o"/>
    <route id="95" edges="7i 6o"/>
    <route id="96" edges="3i 2o"/>
    <route id="97" edges="6i 7o"/>
    <route id="98" edges="3i 2o"/>
    <route id="99" edges="2i 3o"/>
    <route id="100" edges="7i 6o"/>
    <route id="101" edges="5i 1i 4o"/>
    <route id="102" edges="7i 6o"/>
    <route id="103" edges="2i 3o"/>
    <route id="104" edges="3i 2o"/>
    <route id="105" edges="7i 6o"/>
    <route id="106" edges="5i 1i 4o"/>
    <route id="107" edges="2i 3o"/>
    <route id="108" edges="5i 1i 4o"/>
    <route id="109" edges="5i 1i 4o"/>
    <route id="110" edges="2i 3o"/>
    <route id="111" edges="6i 7o"/>
    <route id="112" edges="5i 1i 4o"/>
    <route id="113" edges="2i 3o"/>
    <route id="114" edges="5i 1i 4o"/>
    <route id="115" edges="3i 2o"/>
    <route id="116" edges="6i 7o"/>
    <route id="117" edges="4i 1o 5o"/>
    <route id="118" edges="5i 1i 4o"/>
    <route id="119" edges="3i 2o"/>
    <route id="120" edges="2i 3o"/>
    <route id="121" edges="5i 1i 4o"/>
    <route id="122" edges="7i 6o"/>
    <route id="123" edges="4i 1o 5o"/>
    <route id="124" edges="4i 1o 5o"/>
    <route id="125" edges="5i 1i 4o"/>
    <route id="126" edges="3i 2o"/>
    <route id="127" edges="7i 6o"/>
    <route id="128" edges="4i 1o 5o"/>
    <route id="129" edges="3i 2o"/>
    <route id="130" edges="3i 2o"/>
    <route id="131" edges="7i 6o"/>
    <route id="132" edges="5i 1i 4o"/>
    <route id="133" edges="6i 7o"/>
    <route id="134" edges="7i 6o"/>
    <route id="135" edges="4i 1o 5o"/>
    <route id="136" edges="3i 2o"/>
    <route id="137" edges="7i 6o"/>
    <route id="138" edges="2i 3o"/>
    <route id="139" edges="2i 3o"/>
    <route id="140" edges="2i 3o"/>
    <route id="141" edges="3i 2o"/>
    <route id="142" edges="6i 7o"/>
    <route id="143" edges="5i 1i 4o"/>
    <route id="144" edges="5i 1i 4o"/>
    <route id="145" edges="4i 1o 5o"/>
    <route id="146" edges="6i 7o"/>
    <route id="147" edges="5i 1i 4o"/>
    <route id="148" edges="4i 1o 5o"/>
    <route id="149" edges="4i 1o 5o"/>
    <route id="150" edges="6i 7o"/>
    <route id="151" edges="3i 2o"/>

    <vehicle id="1_83" route="1" depart="83" />
    <vehicle id="2_109" route="2" depart="109" />
    <vehicle id="3_116" route="3" depart="116" />
    <vehicle id="4_129" route="4" depart="129" />
    <vehicle id="5_188" route="5" depart="188" />
    <vehicle id="6_273" route="6" depart="273" />
    <vehicle id="7_300" route="7" depart="300" />
    <vehicle id="8_341" route="8" depart="341" />
    <vehicle id="9_345" route="9" depart="345" />
    <vehicle id="10_385" route="10" depart="385" />
    <vehicle id="11_386" route="11" depart="386" />
    <vehicle id="12_402" route="12" depart="402" />
    <vehicle id="13_412" route="13" depart="412" />
    <vehicle id="14_439" route="14" depart="439" />
    <vehicle id="15_461" route="15" depart="461" />
    <vehicle id="16_480" route="16" depart="480" />
    <vehicle id="17_486" route="17" depart="486" />
    <vehicle id="18_495" route="18" depart="495" />
    <vehicle id="19_513" route="19" depart="513" />
    <vehicle id="20_537" route="20" depart="537" />
    <vehicle id="21_578" route="21" depart="578" />
    <vehicle id="22_600" route="22" depart="600" />
    <vehicle id="23_637" route="23" depart="637" />
    <vehicle id="24_648" route="24" depart="648" />
    <vehicle id="25_692" route="25" depart="692" />
    <vehicle id="26_735" route="26" depart="735" />
    <vehicle id="27_776" route="27" depart="776" />
    <vehicle id="28_835" route="28" depart="835" />
    <vehicle id="29_839" route="29" depart="839" />
    <vehicle id="30_873" route="30" depart="873" />
    <vehicle id="31_913" route="31" depart="913" />
    <vehicle id="32_978" route="32" depart="978" />
    <vehicle id="33_989" route="33" depart="989" />
    <vehicle id="34_992" route="34" depart="992" />
    <vehicle id="35_995" route="35" depart="995" />
    <vehicle id="36_1079" route="36" depart="1079" />
    <vehicle id="37_1082" route="37" depart="1082" />
    <vehicle id="38_1131" route="38" depart="1131" />
    <vehicle id="39_1141" route="39" depart="1141" />
    <vehicle id="40_1187" route="40" depart="1187" />
    <vehicle id="41_1213" route="41" depart="1213" />
    <vehicle id="42_1219" route="42" depart="1219" />
    <vehicle id="43_1231" route="43" depart="1231" />
    <vehicle id="44_1257" route="44" depart="1257" />
    <vehicle id="45_1269" route="45" depart="1269" />
    <vehicle id="46_1280" route="46" depart="1280" />
    <vehicle id="47_1284" route="47" depart="1284" />
    <vehicle id="48_1295" route="48" depart="1295" />
    <vehicle id="49_1312" route="49" depart="1312" />
    <vehicle id="50_1352" route="50" depart="1352" />
    <vehicle id="51_1353" route="51" depart="1353" />
    <vehicle id="52_1359" route="52" depart="1359" />
    <vehicle id="53_1365" route="53" depart="1365" />
    <vehicle id="54_1382" route="54" depart="1382" />
    <vehicle id="55_1388" route="55" depart="1388" />
    <vehicle id="56_1395" route="56" depart="1395" />
    <vehicle id="57_1455" route="57" depart="1455" />
    <vehicle id="58_1473" route="58" depart="1473" />
    <vehicle id="59_1522" route="59" depart="1522" />
    <vehicle id="60_1535" route="60" depart="1535" />
    <vehicle id="61_1552" route="61" depart="1552" />
    <vehicle id="62_1577" route="62" depart="1577" />
    <vehicle id="63_1580" route="63" depart="1580" />
    <vehicle id="64_1587" route="64" depart="1587" />
    <vehicle id="65_1595" route="65" depart="1595" />
    <vehicle id="66_1597" route="66" depart="1597" />
    <vehicle id="67_1613" route="67" depart="1613" />
    <vehicle id="68_1630" route="68" depart="1630" />
    <vehicle id="69_1634" route="69" depart="1634" />
    <vehicle id="70_1635" route="70" depart="1635" />
    <vehicle id="71_1690" route="71" depart="1690" />
    <vehicle id="72_1729" route="72" depart="1729" />
    <vehicle id="73_1799" route="73" depart="1799" />
    <vehicle id="74_1831" route="74" depart="1831" />
    <vehicle id="75_1885" route="75" depart="1885" />
    <vehicle id="76_1894" route="76" depart="1894" />
    <vehicle id="77_1921" route="77" depart="1921" />
    <vehicle id="78_1968" route="78" depart="1968" />
    <vehicle id="79_1970" route="79" depart="1970" />
    <vehicle id="80_1980" route="80" depart="1980" />
    <vehicle id="81_1988" route="81" depart="1988" />
    <vehicle id="82_2007" route="82" depart="2007" />
    <vehicle id="83_2060" route="83" depart="2060" />
    <vehicle id="84_2126" route="84" depart="2126" />
    <vehicle id="85_2145" route="85" depart="2145" />
    <vehicle id="86_2203" route="86" depart="2203" />
    <vehicle id="87_2219" route="87" depart="2219" />
    <vehicle id="88_2228" route="88" depart="2228" />
    <vehicle id="89_2235" route="89" depart="2235" />
    <vehicle id="90_2238" route="90" depart="2238" />
    <vehicle id="91_2249" route="91" depart="2249" />
    <vehicle id="92_2254" route="92" depart="2254" />
    <vehicle id="93_2283" route="93" depart="2283" />
    <vehicle id="94_2309" route="94" depart="2309" />
    <vehicle id="95_2354" route="95" depart="2354" />
    <vehicle id="96_2368" route="96" depart="2368" />
    <vehicle id="97_2369" route="97" depart="2369" />
    <vehicle id="98_2380" route="98" depart="2380" />
    <vehicle id="99_2385" route="99" depart="2385" />
    <vehicle id="100_2452" route="100" depart="2452" />
    <vehicle id="101_2464" route="101" depart="2464" />
    <vehicle id="102_2530" route="102" depart="2530" />
    <vehicle id="103_2534" route="103" depart="2534" />
    <vehicle id="104_2551" route="104" depart="2551" />
    <vehicle id="105_2577" route="105" depart="2577" />
    <vehicle id="106_2592" route="106" depart="2592" />
    <vehicle id="107_2598" route="107" depart="2598" />
    <vehicle id="108_2601" route="108" depart="2601" />
    <vehicle id="109_2606" route="109" depart="2606" />
    <vehicle id="110_2657" route="110" depart="2657" />
    <vehicle id="111_2703" route="111" depart="2703" />
    <vehicle id="112_2717" route="112" depart="2717" />
    <vehicle id="113_2765" route="113" depart="2765" />
    <vehicle id="114_2766" route="114" depart="2766" />
    <vehicle id="115_2776" route="115" depart="2776" />
    <vehicle id="116_2785" route="116" depart="2785" />
    <vehicle id="117_2812" route="117" depart="2812" />
    <vehicle id="118_2820" route="118" depart="2820" />
    <vehicle id="119_2916" route="119" depart="2916" />
    <vehicle id="120_2962" route="120" depart="2962" />
    <vehicle id="121_2967" route="121" depart="2967" />
    <vehicle id="122_2998" route="122" depart="2998" />
    <vehicle id="123_3001" route="123" depart="3001" />
    <vehicle id="124_3003" route="124" depart="3003" />
    <vehicle id="125_3012" route="125" depart="3012" />
    <vehicle id="126_3033" route="126" depart="3033" />
    <vehicle id="127_3050" route="127" depart="3050" />
    <vehicle id="128_3106" route="128" depart="3106" />
    <vehicle id="129_3111" route="129" depart="3111" />
    <vehicle id="130_3113" route="130" depart="3113" />
    <vehicle id="131_3128" route="131" depart="3128" />
    <vehicle id="132_3130" route="132" depart="3130" />
    <vehicle id="133_3165" route="133" depart="3165" />
    <vehicle id="134_3175" route="134" depart="3175" />
    <vehicle id="135_3227" route="135" depart="3227" />
    <vehicle id="136_3252" route="136" depart="3252" />
    <vehicle id="137_3304" route="137" depart="3304" />
    <vehicle id="138_3330" route="138" depart="3330" />
    <vehicle id="139_3378" route="139" depart="3378" />
    <vehicle id="140_3412" route="140" depart="3412" />
    <vehicle id="141_3451" route="141" depart="3451" />
    <vehicle id="142_3475" route="142" depart="3475" />
    <vehicle id="143_3476" route="143" depart="3476" />
    <vehicle id="144_3503" route="144" depart="3503" />
    <vehicle id="145_3513" route="145" depart="3513" />
    <vehicle id="146_3516" route="146" depart="3516" />
    <vehicle id="147_3519" route="147" depart="3519" />
    <vehicle id="148_3534" route="148" depart="3534" />
    <vehicle id="149_3567" route="149" depart="3567" />
    <vehicle id="150_3581" route="150" depart="3581" />
    <vehicle id="151_3596" route="151" depart="3596" />

</routes>