<routes>

    <route id="1" edges="4i 1o 5o"/>
    <route id="2" edges="7i 6o"/>
    <route id="3" edges="5i 1i 4o"/>
    <route id="4" edges="2i 3o"/>
    <route id="5" edges="4i 1o 5o"/>
    <route id="6" edges="7i 6o"/>
    <route id="7" edges="4i 1o 5o"/>
    <route id="8" edges="3i 2o"/>
    <route id="9" edges="4i 1o 5o"/>
    <route id="10" edges="2i 3o"/>
    <route id="11" edges="6i 7o"/>
    <route id="12" edges="2i 3o"/>
    <route id="13" edges="5i 1i 4o"/>
    <route id="14" edges="7i 6o"/>
    <route id="15" edges="6i 7o"/>
    <route id="16" edges="4i 1o 5o"/>
    <route id="17" edges="7i 6o"/>
    <route id="18" edges="5i 1i 4o"/>
    <route id="19" edges="6i 7o"/>
    <route id="20" edges="7i 6o"/>
    <route id="21" edges="6i 7o"/>
    <route id="22" edges="2i 3o"/>
    <route id="23" edges="6i 7o"/>
    <route id="24" edges="6i 7o"/>
    <route id="25" edges="7i 6o"/>
    <route id="26" edges="3i 2o"/>
    <route id="27" edges="6i 7o"/>
    <route id="28" edges="5i 1i 4o"/>
    <route id="29" edges="5i 1i 4o"/>
    <route id="30" edges="7i 6o"/>
    <route id="31" edges="7i 6o"/>
    <route id="32" edges="6i 7o"/>
    <route id="33" edges="2i 3o"/>
    <route id="34" edges="2i 3o"/>
    <route id="35" edges="2i 3o"/>
    <route id="36" edges="7i 6o"/>
    <route id="37" edges="3i 2o"/>
    <route id="38" edges="6i 7o"/>
    <route id="39" edges="4i 1o 5o"/>
    <route id="40" edges="6i 7o"/>
    <route id="41" edges="2i 3o"/>
    <route id="42" edges="6i 7o"/>
    <route id="43" edges="3i 2o"/>
    <route id="44" edges="4i 1o 5o"/>
    <route id="45" edges="6i 7o"/>
    <route id="46" edges="6i 7o"/>
    <route id="47" edges="5i 1i 4o"/>
    <route id="48" edges="6i 7o"/>
    <route id="49" edges="7i 6o"/>
    <route id="50" edges="5i 1i 4o"/>
    <route id="51" edges="6i 7o"/>
    <route id="52" edges="7i 6o"/>
    <route id="53" edges="4i 1o 5o"/>
    <route id="54" edges="2i 3o"/>
    <route id="55" edges="5i 1i 4o"/>
    <route id="56" edges="7i 6o"/>
    <route id="57" edges="5i 1i 4o"/>
    <route id="58" edges="2i 3o"/>
    <route id="59" edges="2i 3o"/>
    <route id="60" edges="3i 2o"/>
    <route id="61" edges="2i 3o"/>
    <route id="62" edges="2i 3o"/>
    <route id="63" edges="6i 7o"/>
    <route id="64" edges="7i 6o"/>
    <route id="65" edges="5i 1i 4o"/>
    <route id="66" edges="5i 1i 4o"/>
    <route id="67" edges="7i 6o"/>
    <route id="68" edges="5i 1i 4o"/>
    <route id="69" edges="2i 3o"/>
    <route id="70" edges="3i 2o"/>
    <route id="71" edges="3i 2o"/>
    <route id="72" edges="2i 3o"/>
    <route id="73" edges="7i 6o"/>
    <route id="74" edges="6i 7o"/>
    <route id="75" edges="4i 1o 5o"/>
    <route id="76" edges="2i 3o"/>
    <route id="77" edges="3i 2o"/>
    <route id="78" edges="6i 7o"/>
    <route id="79" edges="4i 1o 5o"/>
    <route id="80" edges="6i 7o"/>
    <route id="81" edges="6i 7o"/>
    <route id="82" edges="6i 7o"/>
    <route id="83" edges="5i 1i 4o"/>
    <route id="84" edges="7i 6o"/>
    <route id="85" edges="6i 7o"/>
    <route id="86" edges="4i 1o 5o"/>
    <route id="87" edges="5i 1i 4o"/>
    <route id="88" edges="3i 2o"/>
    <route id="89" edges="5i 1i 4o"/>
    <route id="90" edges="7i 6o"/>
    <route id="91" edges="7i 6o"/>
    <route id="92" edges="6i 7o"/>
    <route id="93" edges="6i 7o"/>
    <route id="94" edges="2i 3o"/>
    <route id="95" edges="2i 3o"/>
    <route id="96" edges="3i 2o"/>
    <route id="97" edges="7i 6o"/>
    <route id="98" edges="5i 1i 4o"/>
    <route id="99" edges="6i 7o"/>
    <route id="100" edges="6i 7o"/>
    <route id="101" edges="7i 6o"/>
    <route id="102" edges="2i 3o"/>
    <route id="103" edges="6i 7o"/>
    <route id="104" edges="2i 3o"/>
    <route id="105" edges="6i 7o"/>
    <route id="106" edges="2i 3o"/>
    <route id="107" edges="2i 3o"/>
    <route id="108" edges="6i 7o"/>
    <route id="109" edges="2i 3o"/>
    <route id="110" edges="7i 6o"/>
    <route id="111" edges="5i 1i 4o"/>
    <route id="112" edges="3i 2o"/>
    <route id="113" edges="3i 2o"/>
    <route id="114" edges="4i 1o 5o"/>
    <route id="115" edges="7i 6o"/>
    <route id="116" edges="2i 3o"/>
    <route id="117" edges="5i 1i 4o"/>
    <route id="118" edges="3i 2o"/>
    <route id="119" edges="7i 6o"/>
    <route id="120" edges="2i 3o"/>
    <route id="121" edges="5i 1i 4o"/>
    <route id="122" edges="4i 1o 5o"/>
    <route id="123" edges="6i 7o"/>
    <route id="124" edges="3i 2o"/>
    <route id="125" edges="4i 1o 5o"/>
    <route id="126" edges="3i 2o"/>
    <route id="127" edges="2i 3o"/>
    <route id="128" edges="4i 1o 5o"/>
    <route id="129" edges="2i 3o"/>
    <route id="130" edges="5i 1i 4o"/>
    <route id="131" edges="5i 1i 4o"/>
    <route id="132" edges="6i 7o"/>
    <route id="133" edges="4i 1o 5o"/>
    <route id="134" edges="4i 1o 5o"/>
    <route id="135" edges="5i 1i 4o"/>
    <route id="136" edges="5i 1i 4o"/>
    <route id="137" edges="5i 1i 4o"/>
    <route id="138" edges="6i 7o"/>
    <route id="139" edges="5i 1i 4o"/>
    <route id="140" edges="7i 6o"/>
    <route id="141" edges="2i 3o"/>
    <route id="142" edges="6i 7o"/>
    <route id="143" edges="6i 7o"/>
    <route id="144" edges="2i 3o"/>
    <route id="145" edges="3i 2o"/>
    <route id="146" edges="7i 6o"/>
    <route id="147" edges="6i 7o"/>
    <route id="148" edges="2i 3o"/>
    <route id="149" edges="3i 2o"/>
    <route id="150" edges="2i 3o"/>
    <route id="151" edges="4i 1o 5o"/>
    <route id="152" edges="5i 1i 4o"/>
    <route id="153" edges="5i 1i 4o"/>
    <route id="154" edges="3i 2o"/>
    <route id="155" edges="2i 3o"/>
    <route id="156" edges="5i 1i 4o"/>
    <route id="157" edges="5i 1i 4o"/>
    <route id="158" edges="2i 3o"/>
    <route id="159" edges="2i 3o"/>
    <route id="160" edges="7i 6o"/>
    <route id="161" edges="2i 3o"/>
    <route id="162" edges="6i 7o"/>
    <route id="163" edges="3i 2o"/>
    <route id="164" edges="3i 2o"/>
    <route id="165" edges="7i 6o"/>
    <route id="166" edges="2i 3o"/>
    <route id="167" edges="6i 7o"/>
    <route id="168" edges="6i 7o"/>
    <route id="169" edges="2i 3o"/>
    <route id="170" edges="3i 2o"/>
    <route id="171" edges="5i 1i 4o"/>

    <vehicle id="1_25" route="1" depart="25" />
    <vehicle id="2_50" route="2" depart="50" />
    <vehicle id="3_53" route="3" depart="53" />
    <vehicle id="4_67" route="4" depart="67" />
    <vehicle id="5_82" route="5" depart="82" />
    <vehicle id="6_95" route="6" depart="95" />
    <vehicle id="7_105" route="7" depart="105" />
    <vehicle id="8_129" route="8" depart="129" />
    <vehicle id="9_146" route="9" depart="146" />
    <vehicle id="10_219" route="10" depart="219" />
    <vehicle id="11_250" route="11" depart="250" />
    <vehicle id="12_260" route="12" depart="260" />
    <vehicle id="13_265" route="13" depart="265" />
    <vehicle id="14_271" route="14" depart="271" />
    <vehicle id="15_275" route="15" depart="275" />
    <vehicle id="16_277" route="16" depart="277" />
    <vehicle id="17_278" route="17" depart="278" />
    <vehicle id="18_289" route="18" depart="289" />
    <vehicle id="19_308" route="19" depart="308" />
    <vehicle id="20_396" route="20" depart="396" />
    <vehicle id="21_418" route="21" depart="418" />
    <vehicle id="22_428" route="22" depart="428" />
    <vehicle id="23_460" route="23" depart="460" />
    <vehicle id="24_462" route="24" depart="462" />
    <vehicle id="25_471" route="25" depart="471" />
    <vehicle id="26_480" route="26" depart="480" />
    <vehicle id="27_500" route="27" depart="500" />
    <vehicle id="28_503" route="28" depart="503" />
    <vehicle id="29_505" route="29" depart="505" />
    <vehicle id="30_507" route="30" depart="507" />
    <vehicle id="31_531" route="31" depart="531" />
    <vehicle id="32_534" route="32" depart="534" />
    <vehicle id="33_538" route="33" depart="538" />
    <vehicle id="34_543" route="34" depart="543" />
    <vehicle id="35_550" route="35" depart="550" />
    <vehicle id="36_559" route="36" depart="559" />
    <vehicle id="37_560" route="37" depart="560" />
    <vehicle id="38_572" route="38" depart="572" />
    <vehicle id="39_596" route="39" depart="596" />
    <vehicle id="40_597" route="40" depart="597" />
    <vehicle id="41_610" route="41" depart="610" />
    <vehicle id="42_623" route="42" depart="623" />
    <vehicle id="43_648" route="43" depart="648" />
    <vehicle id="44_662" route="44" depart="662" />
    <vehicle id="45_687" route="45" depart="687" />
    <vehicle id="46_693" route="46" depart="693" />
    <vehicle id="47_714" route="47" depart="714" />
    <vehicle id="48_758" route="48" depart="758" />
    <vehicle id="49_763" route="49" depart="763" />
    <vehicle id="50_823" route="50" depart="823" />
    <vehicle id="51_824" route="51" depart="824" />
    <vehicle id="52_843" route="52" depart="843" />
    <vehicle id="53_853" route="53" depart="853" />
    <vehicle id="54_855" route="54" depart="855" />
    <vehicle id="55_897" route="55" depart="897" />
    <vehicle id="56_898" route="56" depart="898" />
    <vehicle id="57_917" route="57" depart="917" />
    <vehicle id="58_942" route="58" depart="942" />
    <vehicle id="59_961" route="59" depart="961" />
    <vehicle id="60_974" route="60" depart="974" />
    <vehicle id="61_986" route="61" depart="986" />
    <vehicle id="62_1004" route="62" depart="1004" />
    <vehicle id="63_1077" route="63" depart="1077" />
    <vehicle id="64_1098" route="64" depart="1098" />
    <vehicle id="65_1101" route="65" depart="1101" />
    <vehicle id="66_1181" route="66" depart="1181" />
    <vehicle id="67_1185" route="67" depart="1185" />
    <vehicle id="68_1235" route="68" depart="1235" />
    <vehicle id="69_1252" route="69" depart="1252" />
    <vehicle id="70_1268" route="70" depart="1268" />
    <vehicle id="71_1347" route="71" depart="1347" />
    <vehicle id="72_1375" route="72" depart="1375" />
    <vehicle id="73_1398" route="73" depart="1398" />
    <vehicle id="74_1400" route="74" depart="1400" />
    <vehicle id="75_1406" route="75" depart="1406" />
    <vehicle id="76_1429" route="76" depart="1429" />
    <vehicle id="77_1460" route="77" depart="1460" />
    <vehicle id="78_1467" route="78" depart="1467" />
    <vehicle id="79_1479" route="79" depart="1479" />
    <vehicle id="80_1535" route="80" depart="1535" />
    <vehicle id="81_1545" route="81" depart="1545" />
    <vehicle id="82_1553" route="82" depart="1553" />
    <vehicle id="83_1563" route="83" depart="1563" />
    <vehicle id="84_1587" route="84" depart="1587" />
    <vehicle id="85_1624" route="85" depart="1624" />
    <vehicle id="86_1645" route="86" depart="1645" />
    <vehicle id="87_1659" route="87" depart="1659" />
    <vehicle id="88_1679" route="88" depart="1679" />
    <vehicle id="89_1682" route="89" depart="1682" />
    <vehicle id="90_1730" route="90" depart="1730" />
    <vehicle id="91_1765" route="91" depart="1765" />
    <vehicle id="92_1797" route="92" depart="1797" />
    <vehicle id="93_1814" route="93" depart="1814" />
    <vehicle id="94_1845" route="94" depart="1845" />
    <vehicle id="95_1855" route="95" depart="1855" />
    <vehicle id="96_1858" route="96" depart="1858" />
    <vehicle id="97_1865" route="97" depart="1865" />
    <vehicle id="98_1895" route="98" depart="1895" />
    <vehicle id="99_1945" route="99" depart="1945" />
    <vehicle id="100_1981" route="100" depart="1981" />
    <vehicle id="101_2044" route="101" depart="2044" />
    <vehicle id="102_2084" route="102" depart="2084" />
    <vehicle id="103_2089" route="103" depart="2089" />
    <vehicle id="104_2134" route="104" depart="2134" />
    <vehicle id="105_2217" route="105" depart="2217" />
    <vehicle id="106_2237" route="106" depart="2237" />
    <vehicle id="107_2239" route="107" depart="2239" />
    <vehicle id="108_2242" route="108" depart="2242" />
    <vehicle id="109_2252" route="109" depart="2252" />
    <vehicle id="110_2297" route="110" depart="2297" />
    <vehicle id="111_2373" route="111" depart="2373" />
    <vehicle id="112_2391" route="112" depart="2391" />
    <vehicle id="113_2397" route="113" depart="2397" />
    <vehicle id="114_2458" route="114" depart="2458" />
    <vehicle id="115_2493" route="115" depart="2493" />
    <vehicle id="116_2502" route="116" depart="2502" />
    <vehicle id="117_2511" route="117" depart="2511" />
    <vehicle id="118_2538" route="118" depart="2538" />
    <vehicle id="119_2552" route="119" depart="2552" />
    <vehicle id="120_2559" route="120" depart="2559" />
    <vehicle id="121_2565" route="121" depart="2565" />
    <vehicle id="122_2578" route="122" depart="2578" />
    <vehicle id="123_2583" route="123" depart="2583" />
    <vehicle id="124_2604" route="124" depart="2604" />
    <vehicle id="125_2608" route="125" depart="2608" />
    <vehicle id="126_2612" route="126" depart="2612" />
    <vehicle id="127_2624" route="127" depart="2624" />
    <vehicle id="128_2636" route="128" depart="2636" />
    <vehicle id="129_2665" route="129" depart="2665" />
    <vehicle id="130_2692" route="130" depart="2692" />
    <vehicle id="131_2716" route="131" depart="2716" />
    <vehicle id="132_2742" route="132" depart="2742" />
    <vehicle id="133_2757" route="133" depart="2757" />
    <vehicle id="134_2761" route="134" depart="2761" />
    <vehicle id="135_2802" route="135" depart="2802" />
    <vehicle id="136_2838" route="136" depart="2838" />
    <vehicle id="137_2897" route="137" depart="2897" />
    <vehicle id="138_2924" route="138" depart="2924" />
    <vehicle id="139_2939" route="139" depart="2939" />
    <vehicle id="140_2990" route="140" depart="2990" />
    <vehicle id="141_3022" route="141" depart="3022" />
    <vehicle id="142_3044" route="142" depart="3044" />
    <vehicle id="143_3055" route="143" depart="3055" />
    <vehicle id="144_3071" route="144" depart="3071" />
    <vehicle id="145_3081" route="145" depart="3081" />
    <vehicle id="146_3100" route="146" depart="3100" />
    <vehicle id="147_3123" route="147" depart="3123" />
    <vehicle id="148_3177" route="148" depart="3177" />
    <vehicle id="149_3206" route="149" depart="3206" />
    <vehicle id="150_3209" route="150" depart="3209" />
    <vehicle id="151_3213" route="151" depart="3213" />
    <vehicle id="152_3221" route="152" depart="3221" />
    <vehicle id="153_3222" route="153" depart="3222" />
    <vehicle id="154_3227" route="154" depart="3227" />
    <vehicle id="155_3238" route="155" depart="3238" />
    <vehicle id="156_3259" route="156" depart="3259" />
    <vehicle id="157_3265" route="157" depart="3265" />
    <vehicle id="158_3279" route="158" depart="3279" />
    <vehicle id="159_3294" route="159" depart="3294" />
    <vehicle id="160_3401" route="160" depart="3401" />
    <vehicle id="161_3442" route="161" depart="3442" />
    <vehicle id="162_3468" route="162" depart="3468" />
    <vehicle id="163_3474" route="163" depart="3474" />
    <vehicle id="164_3497" route="164" depart="3497" />
    <vehicle id="165_3531" route="165" depart="3531" />
    <vehicle id="166_3559" route="166" depart="3559" />
    <vehicle id="167_3566" route="167" depart="3566" />
    <vehicle id="168_3573" route="168" depart="3573" />
    <vehicle id="169_3580" route="169" depart="3580" />
    <vehicle id="170_3588" route="170" depart="3588" />
    <vehicle id="171_3599" route="171" depart="3599" />

</routes>