<routes>

    <route id="1" edges="2i 3o"/>
    <route id="2" edges="4i 1o 5o"/>
    <route id="3" edges="5i 1i 4o"/>
    <route id="4" edges="4i 1o 5o"/>
    <route id="5" edges="4i 1o 5o"/>
    <route id="6" edges="6i 7o"/>
    <route id="7" edges="5i 1i 4o"/>
    <route id="8" edges="6i 7o"/>
    <route id="9" edges="3i 2o"/>
    <route id="10" edges="4i 1o 5o"/>
    <route id="11" edges="6i 7o"/>
    <route id="12" edges="3i 2o"/>
    <route id="13" edges="7i 6o"/>
    <route id="14" edges="4i 1o 5o"/>
    <route id="15" edges="4i 1o 5o"/>
    <route id="16" edges="6i 7o"/>
    <route id="17" edges="2i 3o"/>
    <route id="18" edges="2i 3o"/>
    <route id="19" edges="5i 1i 4o"/>
    <route id="20" edges="5i 1i 4o"/>
    <route id="21" edges="6i 7o"/>
    <route id="22" edges="7i 6o"/>
    <route id="23" edges="7i 6o"/>
    <route id="24" edges="3i 2o"/>
    <route id="25" edges="5i 1i 4o"/>
    <route id="26" edges="3i 2o"/>
    <route id="27" edges="3i 2o"/>
    <route id="28" edges="3i 2o"/>
    <route id="29" edges="6i 7o"/>
    <route id="30" edges="2i 3o"/>
    <route id="31" edges="7i 6o"/>
    <route id="32" edges="2i 3o"/>
    <route id="33" edges="3i 2o"/>
    <route id="34" edges="6i 7o"/>
    <route id="35" edges="7i 6o"/>
    <route id="36" edges="6i 7o"/>
    <route id="37" edges="4i 1o 5o"/>
    <route id="38" edges="4i 1o 5o"/>
    <route id="39" edges="3i 2o"/>
    <route id="40" edges="2i 3o"/>
    <route id="41" edges="2i 3o"/>
    <route id="42" edges="6i 7o"/>
    <route id="43" edges="2i 3o"/>
    <route id="44" edges="4i 1o 5o"/>
    <route id="45" edges="5i 1i 4o"/>
    <route id="46" edges="7i 6o"/>
    <route id="47" edges="5i 1i 4o"/>
    <route id="48" edges="7i 6o"/>
    <route id="49" edges="4i 1o 5o"/>
    <route id="50" edges="6i 7o"/>
    <route id="51" edges="4i 1o 5o"/>
    <route id="52" edges="6i 7o"/>
    <route id="53" edges="3i 2o"/>
    <route id="54" edges="2i 3o"/>
    <route id="55" edges="6i 7o"/>
    <route id="56" edges="4i 1o 5o"/>
    <route id="57" edges="5i 1i 4o"/>
    <route id="58" edges="7i 6o"/>
    <route id="59" edges="2i 3o"/>
    <route id="60" edges="6i 7o"/>
    <route id="61" edges="4i 1o 5o"/>
    <route id="62" edges="5i 1i 4o"/>
    <route id="63" edges="5i 1i 4o"/>
    <route id="64" edges="2i 3o"/>
    <route id="65" edges="7i 6o"/>
    <route id="66" edges="6i 7o"/>
    <route id="67" edges="7i 6o"/>
    <route id="68" edges="5i 1i 4o"/>
    <route id="69" edges="5i 1i 4o"/>
    <route id="70" edges="3i 2o"/>
    <route id="71" edges="6i 7o"/>
    <route id="72" edges="7i 6o"/>
    <route id="73" edges="6i 7o"/>
    <route id="74" edges="4i 1o 5o"/>
    <route id="75" edges="6i 7o"/>
    <route id="76" edges="3i 2o"/>
    <route id="77" edges="7i 6o"/>
    <route id="78" edges="7i 6o"/>
    <route id="79" edges="4i 1o 5o"/>
    <route id="80" edges="3i 2o"/>
    <route id="81" edges="3i 2o"/>
    <route id="82" edges="6i 7o"/>
    <route id="83" edges="4i 1o 5o"/>
    <route id="84" edges="6i 7o"/>
    <route id="85" edges="2i 3o"/>
    <route id="86" edges="6i 7o"/>
    <route id="87" edges="5i 1i 4o"/>
    <route id="88" edges="5i 1i 4o"/>
    <route id="89" edges="5i 1i 4o"/>
    <route id="90" edges="7i 6o"/>
    <route id="91" edges="7i 6o"/>
    <route id="92" edges="4i 1o 5o"/>
    <route id="93" edges="6i 7o"/>
    <route id="94" edges="3i 2o"/>
    <route id="95" edges="6i 7o"/>
    <route id="96" edges="6i 7o"/>
    <route id="97" edges="4i 1o 5o"/>
    <route id="98" edges="5i 1i 4o"/>
    <route id="99" edges="3i 2o"/>
    <route id="100" edges="3i 2o"/>
    <route id="101" edges="5i 1i 4o"/>
    <route id="102" edges="3i 2o"/>
    <route id="103" edges="3i 2o"/>
    <route id="104" edges="4i 1o 5o"/>
    <route id="105" edges="4i 1o 5o"/>
    <route id="106" edges="7i 6o"/>
    <route id="107" edges="6i 7o"/>
    <route id="108" edges="2i 3o"/>
    <route id="109" edges="5i 1i 4o"/>
    <route id="110" edges="2i 3o"/>
    <route id="111" edges="4i 1o 5o"/>
    <route id="112" edges="5i 1i 4o"/>
    <route id="113" edges="4i 1o 5o"/>
    <route id="114" edges="6i 7o"/>
    <route id="115" edges="2i 3o"/>
    <route id="116" edges="7i 6o"/>
    <route id="117" edges="4i 1o 5o"/>
    <route id="118" edges="7i 6o"/>
    <route id="119" edges="3i 2o"/>
    <route id="120" edges="6i 7o"/>
    <route id="121" edges="2i 3o"/>
    <route id="122" edges="3i 2o"/>
    <route id="123" edges="4i 1o 5o"/>
    <route id="124" edges="2i 3o"/>
    <route id="125" edges="5i 1i 4o"/>
    <route id="126" edges="7i 6o"/>
    <route id="127" edges="5i 1i 4o"/>
    <route id="128" edges="3i 2o"/>
    <route id="129" edges="4i 1o 5o"/>
    <route id="130" edges="6i 7o"/>
    <route id="131" edges="6i 7o"/>
    <route id="132" edges="3i 2o"/>
    <route id="133" edges="2i 3o"/>
    <route id="134" edges="2i 3o"/>
    <route id="135" edges="5i 1i 4o"/>
    <route id="136" edges="2i 3o"/>
    <route id="137" edges="4i 1o 5o"/>
    <route id="138" edges="6i 7o"/>
    <route id="139" edges="6i 7o"/>
    <route id="140" edges="4i 1o 5o"/>
    <route id="141" edges="2i 3o"/>
    <route id="142" edges="4i 1o 5o"/>
    <route id="143" edges="4i 1o 5o"/>
    <route id="144" edges="4i 1o 5o"/>
    <route id="145" edges="3i 2o"/>
    <route id="146" edges="2i 3o"/>
    <route id="147" edges="2i 3o"/>
    <route id="148" edges="6i 7o"/>
    <route id="149" edges="7i 6o"/>
    <route id="150" edges="5i 1i 4o"/>
    <route id="151" edges="6i 7o"/>
    <route id="152" edges="3i 2o"/>
    <route id="153" edges="2i 3o"/>
    <route id="154" edges="3i 2o"/>
    <route id="155" edges="6i 7o"/>
    <route id="156" edges="4i 1o 5o"/>
    <route id="157" edges="4i 1o 5o"/>
    <route id="158" edges="4i 1o 5o"/>
    <route id="159" edges="5i 1i 4o"/>
    <route id="160" edges="6i 7o"/>
    <route id="161" edges="7i 6o"/>
    <route id="162" edges="5i 1i 4o"/>
    <route id="163" edges="6i 7o"/>
    <route id="164" edges="3i 2o"/>
    <route id="165" edges="6i 7o"/>
    <route id="166" edges="6i 7o"/>
    <route id="167" edges="6i 7o"/>
    <route id="168" edges="2i 3o"/>
    <route id="169" edges="7i 6o"/>
    <route id="170" edges="7i 6o"/>
    <route id="171" edges="3i 2o"/>
    <route id="172" edges="4i 1o 5o"/>
    <route id="173" edges="7i 6o"/>
    <route id="174" edges="6i 7o"/>
    <route id="175" edges="6i 7o"/>
    <route id="176" edges="6i 7o"/>
    <route id="177" edges="5i 1i 4o"/>
    <route id="178" edges="5i 1i 4o"/>
    <route id="179" edges="6i 7o"/>
    <route id="180" edges="6i 7o"/>
    <route id="181" edges="5i 1i 4o"/>
    <route id="182" edges="2i 3o"/>
    <route id="183" edges="4i 1o 5o"/>
    <route id="184" edges="6i 7o"/>
    <route id="185" edges="7i 6o"/>
    <route id="186" edges="5i 1i 4o"/>
    <route id="187" edges="2i 3o"/>
    <route id="188" edges="6i 7o"/>
    <route id="189" edges="4i 1o 5o"/>
    <route id="190" edges="7i 6o"/>
    <route id="191" edges="6i 7o"/>
    <route id="192" edges="5i 1i 4o"/>
    <route id="193" edges="6i 7o"/>
    <route id="194" edges="3i 2o"/>
    <route id="195" edges="7i 6o"/>
    <route id="196" edges="5i 1i 4o"/>
    <route id="197" edges="3i 2o"/>
    <route id="198" edges="2i 3o"/>
    <route id="199" edges="2i 3o"/>
    <route id="200" edges="7i 6o"/>
    <route id="201" edges="6i 7o"/>
    <route id="202" edges="5i 1i 4o"/>
    <route id="203" edges="6i 7o"/>
    <route id="204" edges="3i 2o"/>
    <route id="205" edges="5i 1i 4o"/>
    <route id="206" edges="5i 1i 4o"/>
    <route id="207" edges="7i 6o"/>
    <route id="208" edges="5i 1i 4o"/>
    <route id="209" edges="2i 3o"/>
    <route id="210" edges="4i 1o 5o"/>
    <route id="211" edges="7i 6o"/>
    <route id="212" edges="5i 1i 4o"/>
    <route id="213" edges="2i 3o"/>
    <route id="214" edges="3i 2o"/>
    <route id="215" edges="4i 1o 5o"/>
    <route id="216" edges="4i 1o 5o"/>
    <route id="217" edges="6i 7o"/>
    <route id="218" edges="7i 6o"/>
    <route id="219" edges="4i 1o 5o"/>
    <route id="220" edges="4i 1o 5o"/>
    <route id="221" edges="5i 1i 4o"/>
    <route id="222" edges="2i 3o"/>
    <route id="223" edges="3i 2o"/>
    <route id="224" edges="3i 2o"/>
    <route id="225" edges="5i 1i 4o"/>
    <route id="226" edges="3i 2o"/>
    <route id="227" edges="2i 3o"/>
    <route id="228" edges="5i 1i 4o"/>
    <route id="229" edges="4i 1o 5o"/>
    <route id="230" edges="2i 3o"/>
    <route id="231" edges="2i 3o"/>
    <route id="232" edges="5i 1i 4o"/>
    <route id="233" edges="6i 7o"/>
    <route id="234" edges="6i 7o"/>
    <route id="235" edges="7i 6o"/>
    <route id="236" edges="3i 2o"/>
    <route id="237" edges="2i 3o"/>
    <route id="238" edges="3i 2o"/>
    <route id="239" edges="5i 1i 4o"/>
    <route id="240" edges="3i 2o"/>
    <route id="241" edges="4i 1o 5o"/>
    <route id="242" edges="5i 1i 4o"/>
    <route id="243" edges="7i 6o"/>
    <route id="244" edges="3i 2o"/>
    <route id="245" edges="2i 3o"/>
    <route id="246" edges="6i 7o"/>
    <route id="247" edges="5i 1i 4o"/>
    <route id="248" edges="5i 1i 4o"/>
    <route id="249" edges="4i 1o 5o"/>
    <route id="250" edges="6i 7o"/>
    <route id="251" edges="2i 3o"/>
    <route id="252" edges="2i 3o"/>
    <route id="253" edges="5i 1i 4o"/>
    <route id="254" edges="4i 1o 5o"/>
    <route id="255" edges="6i 7o"/>
    <route id="256" edges="7i 6o"/>
    <route id="257" edges="5i 1i 4o"/>
    <route id="258" edges="4i 1o 5o"/>
    <route id="259" edges="7i 6o"/>
    <route id="260" edges="4i 1o 5o"/>
    <route id="261" edges="5i 1i 4o"/>
    <route id="262" edges="4i 1o 5o"/>
    <route id="263" edges="7i 6o"/>
    <route id="264" edges="3i 2o"/>
    <route id="265" edges="3i 2o"/>
    <route id="266" edges="3i 2o"/>
    <route id="267" edges="2i 3o"/>
    <route id="268" edges="7i 6o"/>
    <route id="269" edges="3i 2o"/>
    <route id="270" edges="2i 3o"/>
    <route id="271" edges="6i 7o"/>
    <route id="272" edges="3i 2o"/>
    <route id="273" edges="4i 1o 5o"/>
    <route id="274" edges="2i 3o"/>
    <route id="275" edges="3i 2o"/>
    <route id="276" edges="3i 2o"/>
    <route id="277" edges="3i 2o"/>
    <route id="278" edges="6i 7o"/>
    <route id="279" edges="3i 2o"/>
    <route id="280" edges="6i 7o"/>
    <route id="281" edges="2i 3o"/>
    <route id="282" edges="5i 1i 4o"/>
    <route id="283" edges="2i 3o"/>
    <route id="284" edges="2i 3o"/>
    <route id="285" edges="2i 3o"/>
    <route id="286" edges="3i 2o"/>
    <route id="287" edges="6i 7o"/>
    <route id="288" edges="4i 1o 5o"/>
    <route id="289" edges="3i 2o"/>
    <route id="290" edges="7i 6o"/>
    <route id="291" edges="3i 2o"/>
    <route id="292" edges="2i 3o"/>
    <route id="293" edges="4i 1o 5o"/>
    <route id="294" edges="4i 1o 5o"/>
    <route id="295" edges="6i 7o"/>
    <route id="296" edges="7i 6o"/>
    <route id="297" edges="2i 3o"/>
    <route id="298" edges="4i 1o 5o"/>
    <route id="299" edges="6i 7o"/>
    <route id="300" edges="3i 2o"/>
    <route id="301" edges="4i 1o 5o"/>
    <route id="302" edges="7i 6o"/>
    <route id="303" edges="2i 3o"/>
    <route id="304" edges="4i 1o 5o"/>
    <route id="305" edges="2i 3o"/>
    <route id="306" edges="5i 1i 4o"/>
    <route id="307" edges="4i 1o 5o"/>
    <route id="308" edges="7i 6o"/>
    <route id="309" edges="3i 2o"/>
    <route id="310" edges="3i 2o"/>
    <route id="311" edges="4i 1o 5o"/>
    <route id="312" edges="5i 1i 4o"/>
    <route id="313" edges="6i 7o"/>
    <route id="314" edges="7i 6o"/>
    <route id="315" edges="7i 6o"/>
    <route id="316" edges="7i 6o"/>
    <route id="317" edges="4i 1o 5o"/>
    <route id="318" edges="6i 7o"/>
    <route id="319" edges="2i 3o"/>
    <route id="320" edges="2i 3o"/>
    <route id="321" edges="7i 6o"/>
    <route id="322" edges="3i 2o"/>
    <route id="323" edges="7i 6o"/>
    <route id="324" edges="6i 7o"/>
    <route id="325" edges="5i 1i 4o"/>
    <route id="326" edges="5i 1i 4o"/>
    <route id="327" edges="6i 7o"/>
    <route id="328" edges="6i 7o"/>
    <route id="329" edges="4i 1o 5o"/>
    <route id="330" edges="6i 7o"/>
    <route id="331" edges="4i 1o 5o"/>
    <route id="332" edges="2i 3o"/>
    <route id="333" edges="5i 1i 4o"/>
    <route id="334" edges="4i 1o 5o"/>
    <route id="335" edges="3i 2o"/>
    <route id="336" edges="7i 6o"/>
    <route id="337" edges="7i 6o"/>
    <route id="338" edges="6i 7o"/>
    <route id="339" edges="7i 6o"/>
    <route id="340" edges="7i 6o"/>
    <route id="341" edges="7i 6o"/>
    <route id="342" edges="3i 2o"/>
    <route id="343" edges="6i 7o"/>
    <route id="344" edges="5i 1i 4o"/>
    <route id="345" edges="2i 3o"/>
    <route id="346" edges="7i 6o"/>
    <route id="347" edges="4i 1o 5o"/>
    <route id="348" edges="5i 1i 4o"/>
    <route id="349" edges="5i 1i 4o"/>
    <route id="350" edges="5i 1i 4o"/>
    <route id="351" edges="3i 2o"/>
    <route id="352" edges="7i 6o"/>
    <route id="353" edges="2i 3o"/>
    <route id="354" edges="2i 3o"/>
    <route id="355" edges="4i 1o 5o"/>
    <route id="356" edges="6i 7o"/>
    <route id="357" edges="5i 1i 4o"/>
    <route id="358" edges="7i 6o"/>
    <route id="359" edges="7i 6o"/>
    <route id="360" edges="5i 1i 4o"/>
    <route id="361" edges="4i 1o 5o"/>
    <route id="362" edges="6i 7o"/>
    <route id="363" edges="2i 3o"/>
    <route id="364" edges="7i 6o"/>
    <route id="365" edges="2i 3o"/>
    <route id="366" edges="7i 6o"/>
    <route id="367" edges="7i 6o"/>
    <route id="368" edges="7i 6o"/>
    <route id="369" edges="4i 1o 5o"/>
    <route id="370" edges="6i 7o"/>
    <route id="371" edges="7i 6o"/>
    <route id="372" edges="6i 7o"/>

    <vehicle id="1_16" route="1" depart="16" />
    <vehicle id="2_23" route="2" depart="23" />
    <vehicle id="3_38" route="3" depart="38" />
    <vehicle id="4_71" route="4" depart="71" />
    <vehicle id="5_78" route="5" depart="78" />
    <vehicle id="6_87" route="6" depart="87" />
    <vehicle id="7_88" route="7" depart="88" />
    <vehicle id="8_89" route="8" depart="89" />
    <vehicle id="9_97" route="9" depart="97" />
    <vehicle id="10_98" route="10" depart="98" />
    <vehicle id="11_120" route="11" depart="120" />
    <vehicle id="12_127" route="12" depart="127" />
    <vehicle id="13_128" route="13" depart="128" />
    <vehicle id="14_167" route="14" depart="167" />
    <vehicle id="15_174" route="15" depart="174" />
    <vehicle id="16_182" route="16" depart="182" />
    <vehicle id="17_193" route="17" depart="193" />
    <vehicle id="18_194" route="18" depart="194" />
    <vehicle id="19_195" route="19" depart="195" />
    <vehicle id="20_197" route="20" depart="197" />
    <vehicle id="21_201" route="21" depart="201" />
    <vehicle id="22_203" route="22" depart="203" />
    <vehicle id="23_213" route="23" depart="213" />
    <vehicle id="24_229" route="24" depart="229" />
    <vehicle id="25_236" route="25" depart="236" />
    <vehicle id="26_261" route="26" depart="261" />
    <vehicle id="27_264" route="27" depart="264" />
    <vehicle id="28_275" route="28" depart="275" />
    <vehicle id="29_281" route="29" depart="281" />
    <vehicle id="30_311" route="30" depart="311" />
    <vehicle id="31_329" route="31" depart="329" />
    <vehicle id="32_341" route="32" depart="341" />
    <vehicle id="33_343" route="33" depart="343" />
    <vehicle id="34_349" route="34" depart="349" />
    <vehicle id="35_351" route="35" depart="351" />
    <vehicle id="36_352" route="36" depart="352" />
    <vehicle id="37_362" route="37" depart="362" />
    <vehicle id="38_364" route="38" depart="364" />
    <vehicle id="39_367" route="39" depart="367" />
    <vehicle id="40_393" route="40" depart="393" />
    <vehicle id="41_401" route="41" depart="401" />
    <vehicle id="42_426" route="42" depart="426" />
    <vehicle id="43_433" route="43" depart="433" />
    <vehicle id="44_438" route="44" depart="438" />
    <vehicle id="45_441" route="45" depart="441" />
    <vehicle id="46_451" route="46" depart="451" />
    <vehicle id="47_452" route="47" depart="452" />
    <vehicle id="48_467" route="48" depart="467" />
    <vehicle id="49_491" route="49" depart="491" />
    <vehicle id="50_496" route="50" depart="496" />
    <vehicle id="51_508" route="51" depart="508" />
    <vehicle id="52_523" route="52" depart="523" />
    <vehicle id="53_524" route="53" depart="524" />
    <vehicle id="54_530" route="54" depart="530" />
    <vehicle id="55_552" route="55" depart="552" />
    <vehicle id="56_554" route="56" depart="554" />
    <vehicle id="57_556" route="57" depart="556" />
    <vehicle id="58_560" route="58" depart="560" />
    <vehicle id="59_568" route="59" depart="568" />
    <vehicle id="60_579" route="60" depart="579" />
    <vehicle id="61_584" route="61" depart="584" />
    <vehicle id="62_591" route="62" depart="591" />
    <vehicle id="63_612" route="63" depart="612" />
    <vehicle id="64_613" route="64" depart="613" />
    <vehicle id="65_619" route="65" depart="619" />
    <vehicle id="66_621" route="66" depart="621" />
    <vehicle id="67_636" route="67" depart="636" />
    <vehicle id="68_644" route="68" depart="644" />
    <vehicle id="69_666" route="69" depart="666" />
    <vehicle id="70_685" route="70" depart="685" />
    <vehicle id="71_705" route="71" depart="705" />
    <vehicle id="72_731" route="72" depart="731" />
    <vehicle id="73_755" route="73" depart="755" />
    <vehicle id="74_757" route="74" depart="757" />
    <vehicle id="75_762" route="75" depart="762" />
    <vehicle id="76_763" route="76" depart="763" />
    <vehicle id="77_771" route="77" depart="771" />
    <vehicle id="78_784" route="78" depart="784" />
    <vehicle id="79_803" route="79" depart="803" />
    <vehicle id="80_806" route="80" depart="806" />
    <vehicle id="81_808" route="81" depart="808" />
    <vehicle id="82_828" route="82" depart="828" />
    <vehicle id="83_839" route="83" depart="839" />
    <vehicle id="84_848" route="84" depart="848" />
    <vehicle id="85_854" route="85" depart="854" />
    <vehicle id="86_870" route="86" depart="870" />
    <vehicle id="87_882" route="87" depart="882" />
    <vehicle id="88_890" route="88" depart="890" />
    <vehicle id="89_895" route="89" depart="895" />
    <vehicle id="90_899" route="90" depart="899" />
    <vehicle id="91_902" route="91" depart="902" />
    <vehicle id="92_918" route="92" depart="918" />
    <vehicle id="93_919" route="93" depart="919" />
    <vehicle id="94_922" route="94" depart="922" />
    <vehicle id="95_950" route="95" depart="950" />
    <vehicle id="96_968" route="96" depart="968" />
    <vehicle id="97_976" route="97" depart="976" />
    <vehicle id="98_984" route="98" depart="984" />
    <vehicle id="99_985" route="99" depart="985" />
    <vehicle id="100_1002" route="100" depart="1002" />
    <vehicle id="101_1015" route="101" depart="1015" />
    <vehicle id="102_1016" route="102" depart="1016" />
    <vehicle id="103_1017" route="103" depart="1017" />
    <vehicle id="104_1032" route="104" depart="1032" />
    <vehicle id="105_1042" route="105" depart="1042" />
    <vehicle id="106_1055" route="106" depart="1055" />
    <vehicle id="107_1070" route="107" depart="1070" />
    <vehicle id="108_1075" route="108" depart="1075" />
    <vehicle id="109_1108" route="109" depart="1108" />
    <vehicle id="110_1129" route="110" depart="1129" />
    <vehicle id="111_1131" route="111" depart="1131" />
    <vehicle id="112_1138" route="112" depart="1138" />
    <vehicle id="113_1139" route="113" depart="1139" />
    <vehicle id="114_1147" route="114" depart="1147" />
    <vehicle id="115_1170" route="115" depart="1170" />
    <vehicle id="116_1185" route="116" depart="1185" />
    <vehicle id="117_1202" route="117" depart="1202" />
    <vehicle id="118_1207" route="118" depart="1207" />
    <vehicle id="119_1209" route="119" depart="1209" />
    <vehicle id="120_1211" route="120" depart="1211" />
    <vehicle id="121_1244" route="121" depart="1244" />
    <vehicle id="122_1273" route="122" depart="1273" />
    <vehicle id="123_1291" route="123" depart="1291" />
    <vehicle id="124_1293" route="124" depart="1293" />
    <vehicle id="125_1307" route="125" depart="1307" />
    <vehicle id="126_1321" route="126" depart="1321" />
    <vehicle id="127_1323" route="127" depart="1323" />
    <vehicle id="128_1328" route="128" depart="1328" />
    <vehicle id="129_1329" route="129" depart="1329" />
    <vehicle id="130_1347" route="130" depart="1347" />
    <vehicle id="131_1357" route="131" depart="1357" />
    <vehicle id="132_1365" route="132" depart="1365" />
    <vehicle id="133_1366" route="133" depart="1366" />
    <vehicle id="134_1370" route="134" depart="1370" />
    <vehicle id="135_1375" route="135" depart="1375" />
    <vehicle id="136_1377" route="136" depart="1377" />
    <vehicle id="137_1390" route="137" depart="1390" />
    <vehicle id="138_1407" route="138" depart="1407" />
    <vehicle id="139_1410" route="139" depart="1410" />
    <vehicle id="140_1424" route="140" depart="1424" />
    <vehicle id="141_1441" route="141" depart="1441" />
    <vehicle id="142_1455" route="142" depart="1455" />
    <vehicle id="143_1458" route="143" depart="1458" />
    <vehicle id="144_1471" route="144" depart="1471" />
    <vehicle id="145_1491" route="145" depart="1491" />
    <vehicle id="146_1493" route="146" depart="1493" />
    <vehicle id="147_1495" route="147" depart="1495" />
    <vehicle id="148_1498" route="148" depart="1498" />
    <vehicle id="149_1501" route="149" depart="1501" />
    <vehicle id="150_1505" route="150" depart="1505" />
    <vehicle id="151_1511" route="151" depart="1511" />
    <vehicle id="152_1513" route="152" depart="1513" />
    <vehicle id="153_1523" route="153" depart="1523" />
    <vehicle id="154_1525" route="154" depart="1525" />
    <vehicle id="155_1575" route="155" depart="1575" />
    <vehicle id="156_1580" route="156" depart="1580" />
    <vehicle id="157_1581" route="157" depart="1581" />
    <vehicle id="158_1592" route="158" depart="1592" />
    <vehicle id="159_1597" route="159" depart="1597" />
    <vehicle id="160_1612" route="160" depart="1612" />
    <vehicle id="161_1622" route="161" depart="1622" />
    <vehicle id="162_1631" route="162" depart="1631" />
    <vehicle id="163_1655" route="163" depart="1655" />
    <vehicle id="164_1667" route="164" depart="1667" />
    <vehicle id="165_1668" route="165" depart="1668" />
    <vehicle id="166_1675" route="166" depart="1675" />
    <vehicle id="167_1676" route="167" depart="1676" />
    <vehicle id="168_1686" route="168" depart="1686" />
    <vehicle id="169_1689" route="169" depart="1689" />
    <vehicle id="170_1696" route="170" depart="1696" />
    <vehicle id="171_1713" route="171" depart="1713" />
    <vehicle id="172_1715" route="172" depart="1715" />
    <vehicle id="173_1723" route="173" depart="1723" />
    <vehicle id="174_1739" route="174" depart="1739" />
    <vehicle id="175_1765" route="175" depart="1765" />
    <vehicle id="176_1779" route="176" depart="1779" />
    <vehicle id="177_1796" route="177" depart="1796" />
    <vehicle id="178_1800" route="178" depart="1800" />
    <vehicle id="179_1810" route="179" depart="1810" />
    <vehicle id="180_1844" route="180" depart="1844" />
    <vehicle id="181_1852" route="181" depart="1852" />
    <vehicle id="182_1873" route="182" depart="1873" />
    <vehicle id="183_1897" route="183" depart="1897" />
    <vehicle id="184_1941" route="184" depart="1941" />
    <vehicle id="185_1955" route="185" depart="1955" />
    <vehicle id="186_1958" route="186" depart="1958" />
    <vehicle id="187_1961" route="187" depart="1961" />
    <vehicle id="188_1968" route="188" depart="1968" />
    <vehicle id="189_1972" route="189" depart="1972" />
    <vehicle id="190_2004" route="190" depart="2004" />
    <vehicle id="191_2011" route="191" depart="2011" />
    <vehicle id="192_2012" route="192" depart="2012" />
    <vehicle id="193_2016" route="193" depart="2016" />
    <vehicle id="194_2030" route="194" depart="2030" />
    <vehicle id="195_2042" route="195" depart="2042" />
    <vehicle id="196_2049" route="196" depart="2049" />
    <vehicle id="197_2051" route="197" depart="2051" />
    <vehicle id="198_2055" route="198" depart="2055" />
    <vehicle id="199_2060" route="199" depart="2060" />
    <vehicle id="200_2064" route="200" depart="2064" />
    <vehicle id="201_2077" route="201" depart="2077" />
    <vehicle id="202_2084" route="202" depart="2084" />
    <vehicle id="203_2111" route="203" depart="2111" />
    <vehicle id="204_2112" route="204" depart="2112" />
    <vehicle id="205_2123" route="205" depart="2123" />
    <vehicle id="206_2147" route="206" depart="2147" />
    <vehicle id="207_2156" route="207" depart="2156" />
    <vehicle id="208_2161" route="208" depart="2161" />
    <vehicle id="209_2163" route="209" depart="2163" />
    <vehicle id="210_2172" route="210" depart="2172" />
    <vehicle id="211_2175" route="211" depart="2175" />
    <vehicle id="212_2177" route="212" depart="2177" />
    <vehicle id="213_2182" route="213" depart="2182" />
    <vehicle id="214_2187" route="214" depart="2187" />
    <vehicle id="215_2194" route="215" depart="2194" />
    <vehicle id="216_2199" route="216" depart="2199" />
    <vehicle id="217_2230" route="217" depart="2230" />
    <vehicle id="218_2243" route="218" depart="2243" />
    <vehicle id="219_2260" route="219" depart="2260" />
    <vehicle id="220_2261" route="220" depart="2261" />
    <vehicle id="221_2263" route="221" depart="2263" />
    <vehicle id="222_2269" route="222" depart="2269" />
    <vehicle id="223_2272" route="223" depart="2272" />
    <vehicle id="224_2274" route="224" depart="2274" />
    <vehicle id="225_2276" route="225" depart="2276" />
    <vehicle id="226_2295" route="226" depart="2295" />
    <vehicle id="227_2305" route="227" depart="2305" />
    <vehicle id="228_2309" route="228" depart="2309" />
    <vehicle id="229_2320" route="229" depart="2320" />
    <vehicle id="230_2321" route="230" depart="2321" />
    <vehicle id="231_2323" route="231" depart="2323" />
    <vehicle id="232_2324" route="232" depart="2324" />
    <vehicle id="233_2326" route="233" depart="2326" />
    <vehicle id="234_2331" route="234" depart="2331" />
    <vehicle id="235_2345" route="235" depart="2345" />
    <vehicle id="236_2348" route="236" depart="2348" />
    <vehicle id="237_2354" route="237" depart="2354" />
    <vehicle id="238_2360" route="238" depart="2360" />
    <vehicle id="239_2363" route="239" depart="2363" />
    <vehicle id="240_2367" route="240" depart="2367" />
    <vehicle id="241_2369" route="241" depart="2369" />
    <vehicle id="242_2375" route="242" depart="2375" />
    <vehicle id="243_2388" route="243" depart="2388" />
    <vehicle id="244_2395" route="244" depart="2395" />
    <vehicle id="245_2396" route="245" depart="2396" />
    <vehicle id="246_2399" route="246" depart="2399" />
    <vehicle id="247_2406" route="247" depart="2406" />
    <vehicle id="248_2412" route="248" depart="2412" />
    <vehicle id="249_2419" route="249" depart="2419" />
    <vehicle id="250_2426" route="250" depart="2426" />
    <vehicle id="251_2445" route="251" depart="2445" />
    <vehicle id="252_2458" route="252" depart="2458" />
    <vehicle id="253_2464" route="253" depart="2464" />
    <vehicle id="254_2485" route="254" depart="2485" />
    <vehicle id="255_2490" route="255" depart="2490" />
    <vehicle id="256_2491" route="256" depart="2491" />
    <vehicle id="257_2501" route="257" depart="2501" />
    <vehicle id="258_2520" route="258" depart="2520" />
    <vehicle id="259_2521" route="259" depart="2521" />
    <vehicle id="260_2529" route="260" depart="2529" />
    <vehicle id="261_2542" route="261" depart="2542" />
    <vehicle id="262_2546" route="262" depart="2546" />
    <vehicle id="263_2551" route="263" depart="2551" />
    <vehicle id="264_2569" route="264" depart="2569" />
    <vehicle id="265_2576" route="265" depart="2576" />
    <vehicle id="266_2583" route="266" depart="2583" />
    <vehicle id="267_2589" route="267" depart="2589" />
    <vehicle id="268_2591" route="268" depart="2591" />
    <vehicle id="269_2601" route="269" depart="2601" />
    <vehicle id="270_2612" route="270" depart="2612" />
    <vehicle id="271_2618" route="271" depart="2618" />
    <vehicle id="272_2621" route="272" depart="2621" />
    <vehicle id="273_2645" route="273" depart="2645" />
    <vehicle id="274_2660" route="274" depart="2660" />
    <vehicle id="275_2679" route="275" depart="2679" />
    <vehicle id="276_2686" route="276" depart="2686" />
    <vehicle id="277_2690" route="277" depart="2690" />
    <vehicle id="278_2706" route="278" depart="2706" />
    <vehicle id="279_2708" route="279" depart="2708" />
    <vehicle id="280_2722" route="280" depart="2722" />
    <vehicle id="281_2737" route="281" depart="2737" />
    <vehicle id="282_2748" route="282" depart="2748" />
    <vehicle id="283_2749" route="283" depart="2749" />
    <vehicle id="284_2759" route="284" depart="2759" />
    <vehicle id="285_2774" route="285" depart="2774" />
    <vehicle id="286_2781" route="286" depart="2781" />
    <vehicle id="287_2807" route="287" depart="2807" />
    <vehicle id="288_2809" route="288" depart="2809" />
    <vehicle id="289_2810" route="289" depart="2810" />
    <vehicle id="290_2827" route="290" depart="2827" />
    <vehicle id="291_2833" route="291" depart="2833" />
    <vehicle id="292_2834" route="292" depart="2834" />
    <vehicle id="293_2846" route="293" depart="2846" />
    <vehicle id="294_2849" route="294" depart="2849" />
    <vehicle id="295_2851" route="295" depart="2851" />
    <vehicle id="296_2860" route="296" depart="2860" />
    <vehicle id="297_2865" route="297" depart="2865" />
    <vehicle id="298_2869" route="298" depart="2869" />
    <vehicle id="299_2873" route="299" depart="2873" />