<routes>

    <route id="1" edges="5i 1i 4o"/>
    <route id="2" edges="7i 6o"/>
    <route id="3" edges="3i 2o"/>
    <route id="4" edges="6i 7o"/>
    <route id="5" edges="5i 1i 4o"/>
    <route id="6" edges="6i 7o"/>
    <route id="7" edges="6i 7o"/>
    <route id="8" edges="4i 1o 5o"/>
    <route id="9" edges="5i 1i 4o"/>
    <route id="10" edges="3i 2o"/>
    <route id="11" edges="5i 1i 4o"/>
    <route id="12" edges="5i 1i 4o"/>
    <route id="13" edges="3i 2o"/>
    <route id="14" edges="7i 6o"/>
    <route id="15" edges="2i 3o"/>
    <route id="16" edges="2i 3o"/>
    <route id="17" edges="5i 1i 4o"/>
    <route id="18" edges="6i 7o"/>
    <route id="19" edges="5i 1i 4o"/>
    <route id="20" edges="7i 6o"/>
    <route id="21" edges="5i 1i 4o"/>
    <route id="22" edges="6i 7o"/>
    <route id="23" edges="3i 2o"/>
    <route id="24" edges="3i 2o"/>
    <route id="25" edges="6i 7o"/>
    <route id="26" edges="4i 1o 5o"/>
    <route id="27" edges="2i 3o"/>
    <route id="28" edges="3i 2o"/>
    <route id="29" edges="2i 3o"/>
    <route id="30" edges="2i 3o"/>
    <route id="31" edges="5i 1i 4o"/>
    <route id="32" edges="6i 7o"/>
    <route id="33" edges="7i 6o"/>
    <route id="34" edges="4i 1o 5o"/>
    <route id="35" edges="7i 6o"/>
    <route id="36" edges="5i 1i 4o"/>
    <route id="37" edges="5i 1i 4o"/>
    <route id="38" edges="4i 1o 5o"/>
    <route id="39" edges="2i 3o"/>
    <route id="40" edges="6i 7o"/>
    <route id="41" edges="3i 2o"/>
    <route id="42" edges="4i 1o 5o"/>
    <route id="43" edges="7i 6o"/>
    <route id="44" edges="3i 2o"/>
    <route id="45" edges="2i 3o"/>
    <route id="46" edges="3i 2o"/>
    <route id="47" edges="3i 2o"/>
    <route id="48" edges="6i 7o"/>
    <route id="49" edges="2i 3o"/>
    <route id="50" edges="5i 1i 4o"/>
    <route id="51" edges="6i 7o"/>
    <route id="52" edges="5i 1i 4o"/>
    <route id="53" edges="2i 3o"/>
    <route id="54" edges="3i 2o"/>
    <route id="55" edges="3i 2o"/>
    <route id="56" edges="6i 7o"/>
    <route id="57" edges="6i 7o"/>
    <route id="58" edges="5i 1i 4o"/>
    <route id="59" edges="7i 6o"/>
    <route id="60" edges="2i 3o"/>
    <route id="61" edges="5i 1i 4o"/>
    <route id="62" edges="7i 6o"/>
    <route id="63" edges="5i 1i 4o"/>
    <route id="64" edges="7i 6o"/>
    <route id="65" edges="4i 1o 5o"/>
    <route id="66" edges="2i 3o"/>
    <route id="67" edges="7i 6o"/>
    <route id="68" edges="2i 3o"/>
    <route id="69" edges="6i 7o"/>
    <route id="70" edges="7i 6o"/>
    <route id="71" edges="3i 2o"/>
    <route id="72" edges="3i 2o"/>
    <route id="73" edges="6i 7o"/>
    <route id="74" edges="7i 6o"/>
    <route id="75" edges="5i 1i 4o"/>
    <route id="76" edges="6i 7o"/>
    <route id="77" edges="3i 2o"/>
    <route id="78" edges="6i 7o"/>
    <route id="79" edges="6i 7o"/>
    <route id="80" edges="7i 6o"/>
    <route id="81" edges="6i 7o"/>
    <route id="82" edges="6i 7o"/>
    <route id="83" edges="7i 6o"/>
    <route id="84" edges="2i 3o"/>
    <route id="85" edges="3i 2o"/>
    <route id="86" edges="6i 7o"/>
    <route id="87" edges="2i 3o"/>
    <route id="88" edges="5i 1i 4o"/>
    <route id="89" edges="3i 2o"/>
    <route id="90" edges="5i 1i 4o"/>
    <route id="91" edges="5i 1i 4o"/>
    <route id="92" edges="7i 6o"/>
    <route id="93" edges="5i 1i 4o"/>
    <route id="94" edges="2i 3o"/>
    <route id="95" edges="5i 1i 4o"/>
    <route id="96" edges="4i 1o 5o"/>
    <route id="97" edges="6i 7o"/>
    <route id="98" edges="3i 2o"/>
    <route id="99" edges="6i 7o"/>
    <route id="100" edges="7i 6o"/>
    <route id="101" edges="5i 1i 4o"/>
    <route id="102" edges="6i 7o"/>
    <route id="103" edges="7i 6o"/>
    <route id="104" edges="6i 7o"/>
    <route id="105" edges="3i 2o"/>
    <route id="106" edges="2i 3o"/>
    <route id="107" edges="3i 2o"/>
    <route id="108" edges="3i 2o"/>
    <route id="109" edges="6i 7o"/>
    <route id="110" edges="2i 3o"/>
    <route id="111" edges="7i 6o"/>
    <route id="112" edges="2i 3o"/>
    <route id="113" edges="4i 1o 5o"/>
    <route id="114" edges="7i 6o"/>
    <route id="115" edges="5i 1i 4o"/>
    <route id="116" edges="4i 1o 5o"/>
    <route id="117" edges="3i 2o"/>
    <route id="118" edges="2i 3o"/>
    <route id="119" edges="4i 1o 5o"/>
    <route id="120" edges="3i 2o"/>
    <route id="121" edges="6i 7o"/>
    <route id="122" edges="2i 3o"/>
    <route id="123" edges="6i 7o"/>
    <route id="124" edges="3i 2o"/>
    <route id="125" edges="6i 7o"/>
    <route id="126" edges="5i 1i 4o"/>
    <route id="127" edges="7i 6o"/>
    <route id="128" edges="6i 7o"/>
    <route id="129" edges="2i 3o"/>
    <route id="130" edges="6i 7o"/>
    <route id="131" edges="5i 1i 4o"/>
    <route id="132" edges="6i 7o"/>
    <route id="133" edges="2i 3o"/>
    <route id="134" edges="3i 2o"/>
    <route id="135" edges="6i 7o"/>
    <route id="136" edges="7i 6o"/>
    <route id="137" edges="4i 1o 5o"/>
    <route id="138" edges="4i 1o 5o"/>
    <route id="139" edges="7i 6o"/>
    <route id="140" edges="6i 7o"/>
    <route id="141" edges="6i 7o"/>
    <route id="142" edges="4i 1o 5o"/>
    <route id="143" edges="3i 2o"/>
    <route id="144" edges="5i 1i 4o"/>
    <route id="145" edges="5i 1i 4o"/>
    <route id="146" edges="5i 1i 4o"/>
    <route id="147" edges="5i 1i 4o"/>
    <route id="148" edges="2i 3o"/>
    <route id="149" edges="2i 3o"/>
    <route id="150" edges="5i 1i 4o"/>
    <route id="151" edges="2i 3o"/>
    <route id="152" edges="5i 1i 4o"/>
    <route id="153" edges="6i 7o"/>
    <route id="154" edges="2i 3o"/>
    <route id="155" edges="2i 3o"/>
    <route id="156" edges="7i 6o"/>
    <route id="157" edges="6i 7o"/>
    <route id="158" edges="7i 6o"/>
    <route id="159" edges="2i 3o"/>
    <route id="160" edges="6i 7o"/>
    <route id="161" edges="7i 6o"/>
    <route id="162" edges="2i 3o"/>
    <route id="163" edges="6i 7o"/>
    <route id="164" edges="4i 1o 5o"/>
    <route id="165" edges="3i 2o"/>
    <route id="166" edges="4i 1o 5o"/>
    <route id="167" edges="6i 7o"/>
    <route id="168" edges="6i 7o"/>
    <route id="169" edges="2i 3o"/>
    <route id="170" edges="6i 7o"/>
    <route id="171" edges="3i 2o"/>
    <route id="172" edges="4i 1o 5o"/>
    <route id="173" edges="7i 6o"/>
    <route id="174" edges="2i 3o"/>
    <route id="175" edges="3i 2o"/>
    <route id="176" edges="4i 1o 5o"/>
    <route id="177" edges="3i 2o"/>
    <route id="178" edges="6i 7o"/>
    <route id="179" edges="2i 3o"/>
    <route id="180" edges="2i 3o"/>
    <route id="181" edges="4i 1o 5o"/>
    <route id="182" edges="3i 2o"/>
    <route id="183" edges="4i 1o 5o"/>
    <route id="184" edges="7i 6o"/>
    <route id="185" edges="4i 1o 5o"/>
    <route id="186" edges="3i 2o"/>
    <route id="187" edges="5i 1i 4o"/>
    <route id="188" edges="5i 1i 4o"/>
    <route id="189" edges="2i 3o"/>
    <route id="190" edges="6i 7o"/>
    <route id="191" edges="6i 7o"/>
    <route id="192" edges="5i 1i 4o"/>
    <route id="193" edges="5i 1i 4o"/>

    <vehicle id="1_13" route="1" depart="13" />
    <vehicle id="2_27" route="2" depart="27" />
    <vehicle id="3_41" route="3" depart="41" />
    <vehicle id="4_57" route="4" depart="57" />
    <vehicle id="5_58" route="5" depart="58" />
    <vehicle id="6_83" route="6" depart="83" />
    <vehicle id="7_90" route="7" depart="90" />
    <vehicle id="8_101" route="8" depart="101" />
    <vehicle id="9_115" route="9" depart="115" />
    <vehicle id="10_118" route="10" depart="118" />
    <vehicle id="11_131" route="11" depart="131" />
    <vehicle id="12_134" route="12" depart="134" />
    <vehicle id="13_146" route="13" depart="146" />
    <vehicle id="14_195" route="14" depart="195" />
    <vehicle id="15_204" route="15" depart="204" />
    <vehicle id="16_221" route="16" depart="221" />
    <vehicle id="17_240" route="17" depart="240" />
    <vehicle id="18_246" route="18" depart="246" />
    <vehicle id="19_276" route="19" depart="276" />
    <vehicle id="20_301" route="20" depart="301" />
    <vehicle id="21_333" route="21" depart="333" />
    <vehicle id="22_346" route="22" depart="346" />
    <vehicle id="23_358" route="23" depart="358" />
    <vehicle id="24_386" route="24" depart="386" />
    <vehicle id="25_411" route="25" depart="411" />
    <vehicle id="26_445" route="26" depart="445" />
    <vehicle id="27_467" route="27" depart="467" />
    <vehicle id="28_514" route="28" depart="514" />
    <vehicle id="29_560" route="29" depart="560" />
    <vehicle id="30_574" route="30" depart="574" />
    <vehicle id="31_591" route="31" depart="591" />
    <vehicle id="32_593" route="32" depart="593" />
    <vehicle id="33_649" route="33" depart="649" />
    <vehicle id="34_657" route="34" depart="657" />
    <vehicle id="35_666" route="35" depart="666" />
    <vehicle id="36_701" route="36" depart="701" />
    <vehicle id="37_720" route="37" depart="720" />
    <vehicle id="38_739" route="38" depart="739" />
    <vehicle id="39_783" route="39" depart="783" />
    <vehicle id="40_793" route="40" depart="793" />
    <vehicle id="41_797" route="41" depart="797" />
    <vehicle id="42_824" route="42" depart="824" />
    <vehicle id="43_835" route="43" depart="835" />
    <vehicle id="44_878" route="44" depart="878" />
    <vehicle id="45_884" route="45" depart="884" />
    <vehicle id="46_898" route="46" depart="898" />
    <vehicle id="47_901" route="47" depart="901" />
    <vehicle id="48_917" route="48" depart="917" />
    <vehicle id="49_1030" route="49" depart="1030" />
    <vehicle id="50_1038" route="50" depart="1038" />
    <vehicle id="51_1039" route="51" depart="1039" />
    <vehicle id="52_1049" route="52" depart="1049" />
    <vehicle id="53_1054" route="53" depart="1054" />
    <vehicle id="54_1064" route="54" depart="1064" />
    <vehicle id="55_1087" route="55" depart="1087" />
    <vehicle id="56_1091" route="56" depart="1091" />
    <vehicle id="57_1115" route="57" depart="1115" />
    <vehicle id="58_1159" route="58" depart="1159" />
    <vehicle id="59_1164" route="59" depart="1164" />
    <vehicle id="60_1192" route="60" depart="1192" />
    <vehicle id="61_1199" route="61" depart="1199" />
    <vehicle id="62_1218" route="62" depart="1218" />
    <vehicle id="63_1222" route="63" depart="1222" />
    <vehicle id="64_1225" route="64" depart="1225" />
    <vehicle id="65_1248" route="65" depart="1248" />
    <vehicle id="66_1278" route="66" depart="1278" />
    <vehicle id="67_1301" route="67" depart="1301" />
    <vehicle id="68_1310" route="68" depart="1310" />
    <vehicle id="69_1324" route="69" depart="1324" />
    <vehicle id="70_1326" route="70" depart="1326" />
    <vehicle id="71_1362" route="71" depart="1362" />
    <vehicle id="72_1380" route="72" depart="1380" />
    <vehicle id="73_1389" route="73" depart="1389" />
    <vehicle id="74_1397" route="74" depart="1397" />
    <vehicle id="75_1419" route="75" depart="1419" />
    <vehicle id="76_1467" route="76" depart="1467" />
    <vehicle id="77_1511" route="77" depart="1511" />
    <vehicle id="78_1518" route="78" depart="1518" />
    <vehicle id="79_1521" route="79" depart="1521" />
    <vehicle id="80_1535" route="80" depart="1535" />
    <vehicle id="81_1542" route="81" depart="1542" />
    <vehicle id="82_1552" route="82" depart="1552" />
    <vehicle id="83_1553" route="83" depart="1553" />
    <vehicle id="84_1587" route="84" depart="1587" />
    <vehicle id="85_1590" route="85" depart="1590" />
    <vehicle id="86_1607" route="86" depart="1607" />
    <vehicle id="87_1632" route="87" depart="1632" />
    <vehicle id="88_1633" route="88" depart="1633" />
    <vehicle id="89_1644" route="89" depart="1644" />
    <vehicle id="90_1671" route="90" depart="1671" />
    <vehicle id="91_1676" route="91" depart="1676" />
    <vehicle id="92_1681" route="92" depart="1681" />
    <vehicle id="93_1682" route="93" depart="1682" />
    <vehicle id="94_1693" route="94" depart="1693" />
    <vehicle id="95_1705" route="95" depart="1705" />
    <vehicle id="96_1710" route="96" depart="1710" />
    <vehicle id="97_1769" route="97" depart="1769" />
    <vehicle id="98_1776" route="98" depart="1776" />
    <vehicle id="99_1781" route="99" depart="1781" />
    <vehicle id="100_1834" route="100" depart="1834" />
    <vehicle id="101_1860" route="101" depart="1860" />
    <vehicle id="102_1879" route="102" depart="1879" />
    <vehicle id="103_1886" route="103" depart="1886" />
    <vehicle id="104_1894" route="104" depart="1894" />
    <vehicle id="105_1903" route="105" depart="1903" />
    <vehicle id="106_1969" route="106" depart="1969" />
    <vehicle id="107_1991" route="107" depart="1991" />
    <vehicle id="108_1998" route="108" depart="1998" />
    <vehicle id="109_2006" route="109" depart="2006" />
    <vehicle id="110_2013" route="110" depart="2013" />
    <vehicle id="111_2015" route="111" depart="2015" />
    <vehicle id="112_2027" route="112" depart="2027" />
    <vehicle id="113_2065" route="113" depart="2065" />
    <vehicle id="114_2070" route="114" depart="2070" />
    <vehicle id="115_2089" route="115" depart="2089" />
    <vehicle id="116_2100" route="116" depart="2100" />
    <vehicle id="117_2113" route="117" depart="2113" />
    <vehicle id="118_2115" route="118" depart="2115" />
    <vehicle id="119_2137" route="119" depart="2137" />
    <vehicle id="120_2158" route="120" depart="2158" />
    <vehicle id="121_2184" route="121" depart="2184" />
    <vehicle id="122_2191" route="122" depart="2191" />
    <vehicle id="123_2210" route="123" depart="2210" />
    <vehicle id="124_2214" route="124" depart="2214" />
    <vehicle id="125_2226" route="125" depart="2226" />
    <vehicle id="126_2233" route="126" depart="2233" />
    <vehicle id="127_2245" route="127" depart="2245" />
    <vehicle id="128_2263" route="128" depart="2263" />
    <vehicle id="129_2282" route="129" depart="2282" />
    <vehicle id="130_2310" route="130" depart="2310" />
    <vehicle id="131_2312" route="131" depart="2312" />
    <vehicle id="132_2323" route="132" depart="2323" />
    <vehicle id="133_2349" route="133" depart="2349" />
    <vehicle id="134_2352" route="134" depart="2352" />
    <vehicle id="135_2355" route="135" depart="2355" />
    <vehicle id="136_2359" route="136" depart="2359" />
    <vehicle id="137_2388" route="137" depart="2388" />
    <vehicle id="138_2398" route="138" depart="2398" />
    <vehicle id="139_2411" route="139" depart="2411" />
    <vehicle id="140_2424" route="140" depart="2424" />
    <vehicle id="141_2453" route="141" depart="2453" />
    <vehicle id="142_2491" route="142" depart="2491" />
    <vehicle id="143_2502" route="143" depart="2502" />
    <vehicle id="144_2533" route="144" depart="2533" />
    <vehicle id="145_2545" route="145" depart="2545" />
    <vehicle id="146_2581" route="146" depart="2581" />
    <vehicle id="147_2611" route="147" depart="2611" />
    <vehicle id="148_2656" route="148" depart="2656" />
    <vehicle id="149_2661" route="149" depart="2661" />
    <vehicle id="150_2699" route="150" depart="2699" />
    <vehicle id="151_2721" route="151" depart="2721" />
    <vehicle id="152_2729" route="152" depart="2729" />
    <vehicle id="153_2736" route="153" depart="2736" />
    <vehicle id="154_2737" route="154" depart="2737" />
    <vehicle id="155_2747" route="155" depart="2747" />
    <vehicle id="156_2808" route="156" depart="2808" />
    <vehicle id="157_2834" route="157" depart="2834" />
    <vehicle id="158_2855" route="158" depart="2855" />
    <vehicle id="159_2866" route="159" depart="2866" />
    <vehicle id="160_2884" route="160" depart="2884" />
    <vehicle id="161_2900" route="161" depart="2900" />
    <vehicle id="162_2919" route="162" depart="2919" />
    <vehicle id="163_2958" route="163" depart="2958" />
    <vehicle id="164_2968" route="164" depart="2968" />
    <vehicle id="165_2978" route="165" depart="2978" />
    <vehicle id="166_2990" route="166" depart="2990" />
    <vehicle id="167_2999" route="167" depart="2999" />
    <vehicle id="168_3003" route="168" depart="3003" />
    <vehicle id="169_3068" route="169" depart="3068" />
    <vehicle id="170_3091" route="170" depart="3091" />
    <vehicle id="171_3112" route="171" depart="3112" />
    <vehicle id="172_3113" route="172" depart="3113" />
    <vehicle id="173_3114" route="173" depart="3114" />
    <vehicle id="174_3125" route="174" depart="3125" />
    <vehicle id="175_3139" route="175" depart="3139" />
    <vehicle id="176_3164" route="176" depart="3164" />
    <vehicle id="177_3219" route="177" depart="3219" />
    <vehicle id="178_3223" route="178" depart="3223" />
    <vehicle id="179_3275" route="179" depart="3275" />
    <vehicle id="180_3282" route="180" depart="3282" />
    <vehicle id="181_3304" route="181" depart="3304" />
    <vehicle id="182_3309" route="182" depart="3309" />
    <vehicle id="183_3325" route="183" depart="3325" />
    <vehicle id="184_3326" route="184" depart="3326" />
    <vehicle id="185_3372" route="185" depart="3372" />
    <vehicle id="186_3383" route="186" depart="3383" />
    <vehicle id="187_3429" route="187" depart="3429" />
    <vehicle id="188_3438" route="188" depart="3438" />
    <vehicle id="189_3439" route="189" depart="3439" />
    <vehicle id="190_3501" route="190" depart="3501" />
    <vehicle id="191_3508" route="191" depart="3508" />
    <vehicle id="192_3552" route="192" depart="3552" />
    <vehicle id="193_3592" route="193" depart="3592" />

</routes>