<routes>

    <route id="1" edges="2i 3o"/>
    <route id="2" edges="4i 1o 5o"/>
    <route id="3" edges="4i 1o 5o"/>
    <route id="4" edges="6i 7o"/>
    <route id="5" edges="4i 1o 5o"/>
    <route id="6" edges="3i 2o"/>
    <route id="7" edges="4i 1o 5o"/>
    <route id="8" edges="6i 7o"/>
    <route id="9" edges="2i 3o"/>
    <route id="10" edges="2i 3o"/>
    <route id="11" edges="5i 1i 4o"/>
    <route id="12" edges="5i 1i 4o"/>
    <route id="13" edges="6i 7o"/>
    <route id="14" edges="7i 6o"/>
    <route id="15" edges="5i 1i 4o"/>
    <route id="16" edges="3i 2o"/>
    <route id="17" edges="3i 2o"/>
    <route id="18" edges="6i 7o"/>
    <route id="19" edges="7i 6o"/>
    <route id="20" edges="6i 7o"/>
    <route id="21" edges="4i 1o 5o"/>
    <route id="22" edges="3i 2o"/>
    <route id="23" edges="2i 3o"/>
    <route id="24" edges="6i 7o"/>
    <route id="25" edges="5i 1i 4o"/>
    <route id="26" edges="5i 1i 4o"/>
    <route id="27" edges="7i 6o"/>
    <route id="28" edges="6i 7o"/>
    <route id="29" edges="3i 2o"/>
    <route id="30" edges="6i 7o"/>
    <route id="31" edges="7i 6o"/>
    <route id="32" edges="2i 3o"/>
    <route id="33" edges="5i 1i 4o"/>
    <route id="34" edges="5i 1i 4o"/>
    <route id="35" edges="6i 7o"/>
    <route id="36" edges="7i 6o"/>
    <route id="37" edges="6i 7o"/>
    <route id="38" edges="2i 3o"/>
    <route id="39" edges="6i 7o"/>
    <route id="40" edges="6i 7o"/>
    <route id="41" edges="6i 7o"/>
    <route id="42" edges="7i 6o"/>
    <route id="43" edges="7i 6o"/>
    <route id="44" edges="4i 1o 5o"/>
    <route id="45" edges="2i 3o"/>
    <route id="46" edges="6i 7o"/>
    <route id="47" edges="5i 1i 4o"/>
    <route id="48" edges="7i 6o"/>
    <route id="49" edges="4i 1o 5o"/>
    <route id="50" edges="6i 7o"/>
    <route id="51" edges="3i 2o"/>
    <route id="52" edges="5i 1i 4o"/>
    <route id="53" edges="3i 2o"/>
    <route id="54" edges="3i 2o"/>
    <route id="55" edges="4i 1o 5o"/>
    <route id="56" edges="7i 6o"/>
    <route id="57" edges="4i 1o 5o"/>
    <route id="58" edges="5i 1i 4o"/>
    <route id="59" edges="6i 7o"/>
    <route id="60" edges="7i 6o"/>
    <route id="61" edges="4i 1o 5o"/>
    <route id="62" edges="7i 6o"/>
    <route id="63" edges="3i 2o"/>
    <route id="64" edges="4i 1o 5o"/>
    <route id="65" edges="2i 3o"/>
    <route id="66" edges="5i 1i 4o"/>
    <route id="67" edges="7i 6o"/>
    <route id="68" edges="5i 1i 4o"/>
    <route id="69" edges="3i 2o"/>
    <route id="70" edges="4i 1o 5o"/>
    <route id="71" edges="3i 2o"/>
    <route id="72" edges="2i 3o"/>
    <route id="73" edges="2i 3o"/>
    <route id="74" edges="2i 3o"/>
    <route id="75" edges="4i 1o 5o"/>
    <route id="76" edges="6i 7o"/>
    <route id="77" edges="6i 7o"/>
    <route id="78" edges="2i 3o"/>
    <route id="79" edges="4i 1o 5o"/>
    <route id="80" edges="4i 1o 5o"/>
    <route id="81" edges="3i 2o"/>
    <route id="82" edges="2i 3o"/>
    <route id="83" edges="6i 7o"/>
    <route id="84" edges="3i 2o"/>
    <route id="85" edges="3i 2o"/>
    <route id="86" edges="7i 6o"/>
    <route id="87" edges="6i 7o"/>
    <route id="88" edges="4i 1o 5o"/>
    <route id="89" edges="5i 1i 4o"/>
    <route id="90" edges="5i 1i 4o"/>
    <route id="91" edges="6i 7o"/>
    <route id="92" edges="3i 2o"/>
    <route id="93" edges="6i 7o"/>
    <route id="94" edges="7i 6o"/>
    <route id="95" edges="7i 6o"/>
    <route id="96" edges="3i 2o"/>
    <route id="97" edges="6i 7o"/>
    <route id="98" edges="5i 1i 4o"/>
    <route id="99" edges="5i 1i 4o"/>
    <route id="100" edges="6i 7o"/>
    <route id="101" edges="4i 1o 5o"/>
    <route id="102" edges="4i 1o 5o"/>
    <route id="103" edges="3i 2o"/>
    <route id="104" edges="7i 6o"/>
    <route id="105" edges="5i 1i 4o"/>
    <route id="106" edges="4i 1o 5o"/>
    <route id="107" edges="7i 6o"/>
    <route id="108" edges="5i 1i 4o"/>
    <route id="109" edges="6i 7o"/>
    <route id="110" edges="3i 2o"/>
    <route id="111" edges="5i 1i 4o"/>
    <route id="112" edges="2i 3o"/>
    <route id="113" edges="2i 3o"/>
    <route id="114" edges="5i 1i 4o"/>
    <route id="115" edges="6i 7o"/>
    <route id="116" edges="5i 1i 4o"/>
    <route id="117" edges="5i 1i 4o"/>
    <route id="118" edges="2i 3o"/>
    <route id="119" edges="4i 1o 5o"/>
    <route id="120" edges="5i 1i 4o"/>
    <route id="121" edges="4i 1o 5o"/>
    <route id="122" edges="6i 7o"/>
    <route id="123" edges="6i 7o"/>
    <route id="124" edges="4i 1o 5o"/>
    <route id="125" edges="4i 1o 5o"/>
    <route id="126" edges="5i 1i 4o"/>
    <route id="127" edges="2i 3o"/>
    <route id="128" edges="3i 2o"/>
    <route id="129" edges="5i 1i 4o"/>
    <route id="130" edges="7i 6o"/>
    <route id="131" edges="2i 3o"/>
    <route id="132" edges="5i 1i 4o"/>
    <route id="133" edges="2i 3o"/>
    <route id="134" edges="2i 3o"/>
    <route id="135" edges="5i 1i 4o"/>
    <route id="136" edges="6i 7o"/>
    <route id="137" edges="5i 1i 4o"/>
    <route id="138" edges="5i 1i 4o"/>
    <route id="139" edges="3i 2o"/>
    <route id="140" edges="2i 3o"/>
    <route id="141" edges="6i 7o"/>
    <route id="142" edges="5i 1i 4o"/>
    <route id="143" edges="4i 1o 5o"/>
    <route id="144" edges="2i 3o"/>
    <route id="145" edges="6i 7o"/>
    <route id="146" edges="4i 1o 5o"/>
    <route id="147" edges="6i 7o"/>
    <route id="148" edges="7i 6o"/>
    <route id="149" edges="5i 1i 4o"/>
    <route id="150" edges="7i 6o"/>
    <route id="151" edges="4i 1o 5o"/>
    <route id="152" edges="5i 1i 4o"/>
    <route id="153" edges="4i 1o 5o"/>
    <route id="154" edges="3i 2o"/>
    <route id="155" edges="3i 2o"/>
    <route id="156" edges="2i 3o"/>
    <route id="157" edges="7i 6o"/>
    <route id="158" edges="3i 2o"/>
    <route id="159" edges="2i 3o"/>
    <route id="160" edges="6i 7o"/>
    <route id="161" edges="3i 2o"/>
    <route id="162" edges="4i 1o 5o"/>
    <route id="163" edges="2i 3o"/>
    <route id="164" edges="3i 2o"/>
    <route id="165" edges="3i 2o"/>
    <route id="166" edges="6i 7o"/>
    <route id="167" edges="3i 2o"/>
    <route id="168" edges="6i 7o"/>
    <route id="169" edges="5i 1i 4o"/>
    <route id="170" edges="2i 3o"/>
    <route id="171" edges="3i 2o"/>
    <route id="172" edges="6i 7o"/>
    <route id="173" edges="4i 1o 5o"/>
    <route id="174" edges="7i 6o"/>
    <route id="175" edges="2i 3o"/>
    <route id="176" edges="7i 6o"/>
    <route id="177" edges="4i 1o 5o"/>
    <route id="178" edges="3i 2o"/>
    <route id="179" edges="2i 3o"/>
    <route id="180" edges="4i 1o 5o"/>
    <route id="181" edges="2i 3o"/>
    <route id="182" edges="6i 7o"/>
    <route id="183" edges="7i 6o"/>
    <route id="184" edges="7i 6o"/>
    <route id="185" edges="4i 1o 5o"/>
    <route id="186" edges="6i 7o"/>
    <route id="187" edges="7i 6o"/>
    <route id="188" edges="3i 2o"/>
    <route id="189" edges="6i 7o"/>
    <route id="190" edges="5i 1i 4o"/>
    <route id="191" edges="4i 1o 5o"/>

    <vehicle id="1_16" route="1" depart="16" />
    <vehicle id="2_79" route="2" depart="79" />
    <vehicle id="3_86" route="3" depart="86" />
    <vehicle id="4_101" route="4" depart="101" />
    <vehicle id="5_112" route="5" depart="112" />
    <vehicle id="6_143" route="6" depart="143" />
    <vehicle id="7_195" route="7" depart="195" />
    <vehicle id="8_203" route="8" depart="203" />
    <vehicle id="9_214" route="9" depart="214" />
    <vehicle id="10_215" route="10" depart="215" />
    <vehicle id="11_216" route="11" depart="216" />
    <vehicle id="12_218" route="12" depart="218" />
    <vehicle id="13_222" route="13" depart="222" />
    <vehicle id="14_243" route="14" depart="243" />
    <vehicle id="15_269" route="15" depart="269" />
    <vehicle id="16_294" route="16" depart="294" />
    <vehicle id="17_351" route="17" depart="351" />
    <vehicle id="18_401" route="18" depart="401" />
    <vehicle id="19_403" route="19" depart="403" />
    <vehicle id="20_404" route="20" depart="404" />
    <vehicle id="21_418" route="21" depart="418" />
    <vehicle id="22_421" route="22" depart="421" />
    <vehicle id="23_459" route="23" depart="459" />
    <vehicle id="24_484" route="24" depart="484" />
    <vehicle id="25_505" route="25" depart="505" />
    <vehicle id="26_518" route="26" depart="518" />
    <vehicle id="27_533" route="27" depart="533" />
    <vehicle id="28_564" route="28" depart="564" />
    <vehicle id="29_598" route="29" depart="598" />
    <vehicle id="30_629" route="30" depart="629" />
    <vehicle id="31_641" route="31" depart="641" />
    <vehicle id="32_649" route="32" depart="649" />
    <vehicle id="33_677" route="33" depart="677" />
    <vehicle id="34_698" route="34" depart="698" />
    <vehicle id="35_702" route="35" depart="702" />
    <vehicle id="36_707" route="36" depart="707" />
    <vehicle id="37_709" route="37" depart="709" />
    <vehicle id="38_737" route="38" depart="737" />
    <vehicle id="39_759" route="39" depart="759" />
    <vehicle id="40_799" route="40" depart="799" />
    <vehicle id="41_853" route="41" depart="853" />
    <vehicle id="42_876" route="42" depart="876" />
    <vehicle id="43_889" route="43" depart="889" />
    <vehicle id="44_954" route="44" depart="954" />
    <vehicle id="45_972" route="45" depart="972" />
    <vehicle id="46_988" route="46" depart="988" />
    <vehicle id="47_1000" route="47" depart="1000" />
    <vehicle id="48_1010" route="48" depart="1010" />
    <vehicle id="49_1043" route="49" depart="1043" />
    <vehicle id="50_1100" route="50" depart="1100" />
    <vehicle id="51_1140" route="51" depart="1140" />
    <vehicle id="52_1153" route="52" depart="1153" />
    <vehicle id="53_1154" route="53" depart="1154" />
    <vehicle id="54_1155" route="54" depart="1155" />
    <vehicle id="55_1186" route="55" depart="1186" />
    <vehicle id="56_1199" route="56" depart="1199" />
    <vehicle id="57_1284" route="57" depart="1284" />
    <vehicle id="58_1291" route="58" depart="1291" />
    <vehicle id="59_1305" route="59" depart="1305" />
    <vehicle id="60_1345" route="60" depart="1345" />
    <vehicle id="61_1362" route="61" depart="1362" />
    <vehicle id="62_1367" route="62" depart="1367" />
    <vehicle id="63_1442" route="63" depart="1442" />
    <vehicle id="64_1460" route="64" depart="1460" />
    <vehicle id="65_1462" route="65" depart="1462" />
    <vehicle id="66_1476" route="66" depart="1476" />
    <vehicle id="67_1490" route="67" depart="1490" />
    <vehicle id="68_1492" route="68" depart="1492" />
    <vehicle id="69_1497" route="69" depart="1497" />
    <vehicle id="70_1498" route="70" depart="1498" />
    <vehicle id="71_1538" route="71" depart="1538" />
    <vehicle id="72_1539" route="72" depart="1539" />
    <vehicle id="73_1551" route="73" depart="1551" />
    <vehicle id="74_1552" route="74" depart="1552" />
    <vehicle id="75_1565" route="75" depart="1565" />
    <vehicle id="76_1582" route="76" depart="1582" />
    <vehicle id="77_1585" route="77" depart="1585" />
    <vehicle id="78_1618" route="78" depart="1618" />
    <vehicle id="79_1632" route="79" depart="1632" />
    <vehicle id="80_1650" route="80" depart="1650" />
    <vehicle id="81_1670" route="81" depart="1670" />
    <vehicle id="82_1676" route="82" depart="1676" />
    <vehicle id="83_1679" route="83" depart="1679" />
    <vehicle id="84_1695" route="84" depart="1695" />
    <vehicle id="85_1703" route="85" depart="1703" />
    <vehicle id="86_1721" route="86" depart="1721" />
    <vehicle id="87_1770" route="87" depart="1770" />
    <vehicle id="88_1775" route="88" depart="1775" />
    <vehicle id="89_1798" route="89" depart="1798" />
    <vehicle id="90_1837" route="90" depart="1837" />
    <vehicle id="91_1861" route="91" depart="1861" />
    <vehicle id="92_1873" route="92" depart="1873" />
    <vehicle id="93_1883" route="93" depart="1883" />
    <vehicle id="94_1902" route="94" depart="1902" />
    <vehicle id="95_1909" route="95" depart="1909" />
    <vehicle id="96_1926" route="96" depart="1926" />
    <vehicle id="97_1958" route="97" depart="1958" />
    <vehicle id="98_2022" route="98" depart="2022" />
    <vehicle id="99_2026" route="99" depart="2026" />
    <vehicle id="100_2073" route="100" depart="2073" />
    <vehicle id="101_2108" route="101" depart="2108" />
    <vehicle id="102_2131" route="102" depart="2131" />
    <vehicle id="103_2176" route="103" depart="2176" />
    <vehicle id="104_2187" route="104" depart="2187" />
    <vehicle id="105_2190" route="105" depart="2190" />
    <vehicle id="106_2209" route="106" depart="2209" />
    <vehicle id="107_2241" route="107" depart="2241" />
    <vehicle id="108_2252" route="108" depart="2252" />
    <vehicle id="109_2256" route="109" depart="2256" />
    <vehicle id="110_2270" route="110" depart="2270" />
    <vehicle id="111_2293" route="111" depart="2293" />
    <vehicle id="112_2299" route="112" depart="2299" />
    <vehicle id="113_2304" route="113" depart="2304" />
    <vehicle id="114_2333" route="114" depart="2333" />
    <vehicle id="115_2360" route="115" depart="2360" />
    <vehicle id="116_2374" route="116" depart="2374" />
    <vehicle id="117_2416" route="117" depart="2416" />
    <vehicle id="118_2418" route="118" depart="2418" />
    <vehicle id="119_2427" route="119" depart="2427" />
    <vehicle id="120_2450" route="120" depart="2450" />
    <vehicle id="121_2456" route="121" depart="2456" />
    <vehicle id="122_2494" route="122" depart="2494" />
    <vehicle id="123_2508" route="123" depart="2508" />
    <vehicle id="124_2523" route="124" depart="2523" />
    <vehicle id="125_2524" route="125" depart="2524" />
    <vehicle id="126_2526" route="126" depart="2526" />
    <vehicle id="127_2532" route="127" depart="2532" />
    <vehicle id="128_2535" route="128" depart="2535" />
    <vehicle id="129_2541" route="129" depart="2541" />
    <vehicle id="130_2562" route="130" depart="2562" />
    <vehicle id="131_2571" route="131" depart="2571" />
    <vehicle id="132_2575" route="132" depart="2575" />
    <vehicle id="133_2589" route="133" depart="2589" />
    <vehicle id="134_2591" route="134" depart="2591" />
    <vehicle id="135_2592" route="135" depart="2592" />
    <vehicle id="136_2602" route="136" depart="2602" />
    <vehicle id="137_2646" route="137" depart="2646" />
    <vehicle id="138_2662" route="138" depart="2662" />
    <vehicle id="139_2684" route="139" depart="2684" />
    <vehicle id="140_2685" route="140" depart="2685" />
    <vehicle id="141_2688" route="141" depart="2688" />
    <vehicle id="142_2695" route="142" depart="2695" />
    <vehicle id="143_2710" route="143" depart="2710" />
    <vehicle id="144_2754" route="144" depart="2754" />
    <vehicle id="145_2763" route="145" depart="2763" />
    <vehicle id="146_2781" route="146" depart="2781" />
    <vehicle id="147_2786" route="147" depart="2786" />
    <vehicle id="148_2787" route="148" depart="2787" />
    <vehicle id="149_2797" route="149" depart="2797" />
    <vehicle id="150_2819" route="150" depart="2819" />
    <vehicle id="151_2827" route="151" depart="2827" />
    <vehicle id="152_2840" route="152" depart="2840" />
    <vehicle id="153_2844" route="153" depart="2844" />
    <vehicle id="154_2886" route="154" depart="2886" />
    <vehicle id="155_2893" route="155" depart="2893" />
    <vehicle id="156_2899" route="156" depart="2899" />
    <vehicle id="157_2901" route="157" depart="2901" />
    <vehicle id="158_2911" route="158" depart="2911" />
    <vehicle id="159_2922" route="159" depart="2922" />
    <vehicle id="160_2928" route="160" depart="2928" />
    <vehicle id="161_2931" route="161" depart="2931" />
    <vehicle id="162_2955" route="162" depart="2955" />
    <vehicle id="163_2970" route="163" depart="2970" />
    <vehicle id="164_2989" route="164" depart="2989" />
    <vehicle id="165_2996" route="165" depart="2996" />
    <vehicle id="166_3019" route="166" depart="3019" />
    <vehicle id="167_3021" route="167" depart="3021" />
    <vehicle id="168_3035" route="168" depart="3035" />
    <vehicle id="169_3064" route="169" depart="3064" />
    <vehicle id="170_3065" route="170" depart="3065" />
    <vehicle id="171_3103" route="171" depart="3103" />
    <vehicle id="172_3129" route="172" depart="3129" />
    <vehicle id="173_3131" route="173" depart="3131" />
    <vehicle id="174_3153" route="174" depart="3153" />
    <vehicle id="175_3162" route="175" depart="3162" />
    <vehicle id="176_3195" route="176" depart="3195" />
    <vehicle id="177_3206" route="177" depart="3206" />
    <vehicle id="178_3220" route="178" depart="3220" />
    <vehicle id="179_3247" route="179" depart="3247" />
    <vehicle id="180_3281" route="180" depart="3281" />
    <vehicle id="181_3287" route="181" depart="3287" />
    <vehicle id="182_3391" route="182" depart="3391" />
    <vehicle id="183_3434" route="183" depart="3434" />
    <vehicle id="184_3469" route="184" depart="3469" />
    <vehicle id="185_3490" route="185" depart="3490" />
    <vehicle id="186_3499" route="186" depart="3499" />
    <vehicle id="187_3529" route="187" depart="3529" />
    <vehicle id="188_3543" route="188" depart="3543" />
    <vehicle id="189_3549" route="189" depart="3549" />
    <vehicle id="190_3550" route="190" depart="3550" />
    <vehicle id="191_3586" route="191" depart="3586" />

</routes>