<routes>

    <route id="1" edges="5i 1i 4o"/>
    <route id="2" edges="5i 1i 4o"/>
    <route id="3" edges="5i 1i 4o"/>
    <route id="4" edges="4i 1o 5o"/>
    <route id="5" edges="7i 6o"/>
    <route id="6" edges="3i 2o"/>
    <route id="7" edges="2i 3o"/>
    <route id="8" edges="2i 3o"/>
    <route id="9" edges="5i 1i 4o"/>
    <route id="10" edges="2i 3o"/>
    <route id="11" edges="5i 1i 4o"/>
    <route id="12" edges="3i 2o"/>
    <route id="13" edges="4i 1o 5o"/>
    <route id="14" edges="6i 7o"/>
    <route id="15" edges="3i 2o"/>
    <route id="16" edges="5i 1i 4o"/>
    <route id="17" edges="2i 3o"/>
    <route id="18" edges="2i 3o"/>
    <route id="19" edges="2i 3o"/>
    <route id="20" edges="5i 1i 4o"/>
    <route id="21" edges="2i 3o"/>
    <route id="22" edges="6i 7o"/>
    <route id="23" edges="6i 7o"/>
    <route id="24" edges="2i 3o"/>
    <route id="25" edges="5i 1i 4o"/>
    <route id="26" edges="2i 3o"/>
    <route id="27" edges="4i 1o 5o"/>
    <route id="28" edges="3i 2o"/>
    <route id="29" edges="4i 1o 5o"/>
    <route id="30" edges="5i 1i 4o"/>
    <route id="31" edges="4i 1o 5o"/>
    <route id="32" edges="5i 1i 4o"/>
    <route id="33" edges="7i 6o"/>
    <route id="34" edges="2i 3o"/>
    <route id="35" edges="5i 1i 4o"/>
    <route id="36" edges="5i 1i 4o"/>
    <route id="37" edges="3i 2o"/>
    <route id="38" edges="6i 7o"/>
    <route id="39" edges="4i 1o 5o"/>
    <route id="40" edges="4i 1o 5o"/>
    <route id="41" edges="2i 3o"/>
    <route id="42" edges="3i 2o"/>
    <route id="43" edges="7i 6o"/>
    <route id="44" edges="2i 3o"/>
    <route id="45" edges="6i 7o"/>
    <route id="46" edges="2i 3o"/>
    <route id="47" edges="2i 3o"/>
    <route id="48" edges="7i 6o"/>
    <route id="49" edges="3i 2o"/>
    <route id="50" edges="5i 1i 4o"/>
    <route id="51" edges="6i 7o"/>
    <route id="52" edges="5i 1i 4o"/>
    <route id="53" edges="6i 7o"/>
    <route id="54" edges="7i 6o"/>
    <route id="55" edges="7i 6o"/>
    <route id="56" edges="7i 6o"/>
    <route id="57" edges="6i 7o"/>
    <route id="58" edges="2i 3o"/>
    <route id="59" edges="5i 1i 4o"/>
    <route id="60" edges="6i 7o"/>
    <route id="61" edges="7i 6o"/>
    <route id="62" edges="7i 6o"/>
    <route id="63" edges="6i 7o"/>
    <route id="64" edges="6i 7o"/>
    <route id="65" edges="4i 1o 5o"/>
    <route id="66" edges="4i 1o 5o"/>
    <route id="67" edges="5i 1i 4o"/>
    <route id="68" edges="5i 1i 4o"/>
    <route id="69" edges="3i 2o"/>
    <route id="70" edges="7i 6o"/>
    <route id="71" edges="6i 7o"/>
    <route id="72" edges="2i 3o"/>
    <route id="73" edges="7i 6o"/>
    <route id="74" edges="6i 7o"/>
    <route id="75" edges="3i 2o"/>
    <route id="76" edges="2i 3o"/>
    <route id="77" edges="3i 2o"/>
    <route id="78" edges="4i 1o 5o"/>
    <route id="79" edges="6i 7o"/>
    <route id="80" edges="3i 2o"/>
    <route id="81" edges="3i 2o"/>
    <route id="82" edges="2i 3o"/>
    <route id="83" edges="4i 1o 5o"/>
    <route id="84" edges="7i 6o"/>
    <route id="85" edges="5i 1i 4o"/>
    <route id="86" edges="4i 1o 5o"/>
    <route id="87" edges="6i 7o"/>
    <route id="88" edges="7i 6o"/>
    <route id="89" edges="3i 2o"/>
    <route id="90" edges="4i 1o 5o"/>
    <route id="91" edges="7i 6o"/>
    <route id="92" edges="6i 7o"/>
    <route id="93" edges="2i 3o"/>
    <route id="94" edges="5i 1i 4o"/>
    <route id="95" edges="3i 2o"/>
    <route id="96" edges="5i 1i 4o"/>
    <route id="97" edges="5i 1i 4o"/>
    <route id="98" edges="3i 2o"/>
    <route id="99" edges="7i 6o"/>
    <route id="100" edges="6i 7o"/>
    <route id="101" edges="2i 3o"/>
    <route id="102" edges="7i 6o"/>
    <route id="103" edges="2i 3o"/>
    <route id="104" edges="3i 2o"/>
    <route id="105" edges="5i 1i 4o"/>
    <route id="106" edges="3i 2o"/>
    <route id="107" edges="2i 3o"/>
    <route id="108" edges="7i 6o"/>
    <route id="109" edges="7i 6o"/>
    <route id="110" edges="4i 1o 5o"/>
    <route id="111" edges="4i 1o 5o"/>
    <route id="112" edges="2i 3o"/>
    <route id="113" edges="5i 1i 4o"/>
    <route id="114" edges="5i 1i 4o"/>
    <route id="115" edges="2i 3o"/>
    <route id="116" edges="5i 1i 4o"/>
    <route id="117" edges="7i 6o"/>
    <route id="118" edges="7i 6o"/>
    <route id="119" edges="4i 1o 5o"/>
    <route id="120" edges="5i 1i 4o"/>
    <route id="121" edges="2i 3o"/>
    <route id="122" edges="2i 3o"/>
    <route id="123" edges="6i 7o"/>
    <route id="124" edges="7i 6o"/>
    <route id="125" edges="4i 1o 5o"/>
    <route id="126" edges="4i 1o 5o"/>
    <route id="127" edges="7i 6o"/>
    <route id="128" edges="4i 1o 5o"/>
    <route id="129" edges="3i 2o"/>
    <route id="130" edges="7i 6o"/>
    <route id="131" edges="5i 1i 4o"/>
    <route id="132" edges="4i 1o 5o"/>
    <route id="133" edges="4i 1o 5o"/>
    <route id="134" edges="2i 3o"/>
    <route id="135" edges="2i 3o"/>
    <route id="136" edges="5i 1i 4o"/>
    <route id="137" edges="5i 1i 4o"/>
    <route id="138" edges="6i 7o"/>
    <route id="139" edges="3i 2o"/>
    <route id="140" edges="2i 3o"/>
    <route id="141" edges="3i 2o"/>
    <route id="142" edges="4i 1o 5o"/>
    <route id="143" edges="5i 1i 4o"/>
    <route id="144" edges="4i 1o 5o"/>
    <route id="145" edges="3i 2o"/>
    <route id="146" edges="6i 7o"/>
    <route id="147" edges="3i 2o"/>
    <route id="148" edges="2i 3o"/>
    <route id="149" edges="5i 1i 4o"/>
    <route id="150" edges="6i 7o"/>
    <route id="151" edges="3i 2o"/>
    <route id="152" edges="3i 2o"/>
    <route id="153" edges="7i 6o"/>
    <route id="154" edges="5i 1i 4o"/>
    <route id="155" edges="3i 2o"/>
    <route id="156" edges="2i 3o"/>
    <route id="157" edges="7i 6o"/>
    <route id="158" edges="4i 1o 5o"/>
    <route id="159" edges="7i 6o"/>
    <route id="160" edges="4i 1o 5o"/>
    <route id="161" edges="2i 3o"/>
    <route id="162" edges="5i 1i 4o"/>
    <route id="163" edges="4i 1o 5o"/>
    <route id="164" edges="5i 1i 4o"/>
    <route id="165" edges="2i 3o"/>
    <route id="166" edges="5i 1i 4o"/>
    <route id="167" edges="2i 3o"/>
    <route id="168" edges="2i 3o"/>
    <route id="169" edges="3i 2o"/>
    <route id="170" edges="4i 1o 5o"/>
    <route id="171" edges="4i 1o 5o"/>
    <route id="172" edges="3i 2o"/>
    <route id="173" edges="7i 6o"/>
    <route id="174" edges="7i 6o"/>
    <route id="175" edges="6i 7o"/>
    <route id="176" edges="3i 2o"/>
    <route id="177" edges="5i 1i 4o"/>
    <route id="178" edges="5i 1i 4o"/>
    <route id="179" edges="7i 6o"/>
    <route id="180" edges="5i 1i 4o"/>
    <route id="181" edges="6i 7o"/>
    <route id="182" edges="6i 7o"/>
    <route id="183" edges="7i 6o"/>
    <route id="184" edges="2i 3o"/>
    <route id="185" edges="6i 7o"/>
    <route id="186" edges="3i 2o"/>
    <route id="187" edges="7i 6o"/>
    <route id="188" edges="3i 2o"/>
    <route id="189" edges="7i 6o"/>
    <route id="190" edges="5i 1i 4o"/>
    <route id="191" edges="7i 6o"/>
    <route id="192" edges="3i 2o"/>
    <route id="193" edges="7i 6o"/>
    <route id="194" edges="6i 7o"/>
    <route id="195" edges="4i 1o 5o"/>
    <route id="196" edges="7i 6o"/>
    <route id="197" edges="4i 1o 5o"/>
    <route id="198" edges="3i 2o"/>
    <route id="199" edges="7i 6o"/>
    <route id="200" edges="3i 2o"/>
    <route id="201" edges="5i 1i 4o"/>
    <route id="202" edges="6i 7o"/>
    <route id="203" edges="2i 3o"/>
    <route id="204" edges="7i 6o"/>
    <route id="205" edges="5i 1i 4o"/>
    <route id="206" edges="7i 6o"/>
    <route id="207" edges="2i 3o"/>
    <route id="208" edges="7i 6o"/>
    <route id="209" edges="6i 7o"/>
    <route id="210" edges="7i 6o"/>
    <route id="211" edges="3i 2o"/>
    <route id="212" edges="6i 7o"/>
    <route id="213" edges="6i 7o"/>
    <route id="214" edges="3i 2o"/>
    <route id="215" edges="4i 1o 5o"/>
    <route id="216" edges="6i 7o"/>
    <route id="217" edges="3i 2o"/>
    <route id="218" edges="2i 3o"/>
    <route id="219" edges="7i 6o"/>
    <route id="220" edges="6i 7o"/>
    <route id="221" edges="2i 3o"/>
    <route id="222" edges="2i 3o"/>
    <route id="223" edges="2i 3o"/>
    <route id="224" edges="6i 7o"/>
    <route id="225" edges="6i 7o"/>
    <route id="226" edges="3i 2o"/>
    <route id="227" edges="3i 2o"/>
    <route id="228" edges="6i 7o"/>
    <route id="229" edges="7i 6o"/>
    <route id="230" edges="7i 6o"/>
    <route id="231" edges="6i 7o"/>
    <route id="232" edges="3i 2o"/>
    <route id="233" edges="5i 1i 4o"/>
    <route id="234" edges="3i 2o"/>
    <route id="235" edges="5i 1i 4o"/>
    <route id="236" edges="3i 2o"/>
    <route id="237" edges="5i 1i 4o"/>
    <route id="238" edges="5i 1i 4o"/>
    <route id="239" edges="6i 7o"/>
    <route id="240" edges="6i 7o"/>
    <route id="241" edges="2i 3o"/>
    <route id="242" edges="3i 2o"/>
    <route id="243" edges="7i 6o"/>
    <route id="244" edges="2i 3o"/>
    <route id="245" edges="3i 2o"/>
    <route id="246" edges="5i 1i 4o"/>
    <route id="247" edges="6i 7o"/>
    <route id="248" edges="7i 6o"/>
    <route id="249" edges="3i 2o"/>
    <route id="250" edges="3i 2o"/>
    <route id="251" edges="4i 1o 5o"/>
    <route id="252" edges="6i 7o"/>
    <route id="253" edges="3i 2o"/>
    <route id="254" edges="5i 1i 4o"/>
    <route id="255" edges="7i 6o"/>
    <route id="256" edges="3i 2o"/>
    <route id="257" edges="5i 1i 4o"/>
    <route id="258" edges="2i 3o"/>
    <route id="259" edges="3i 2o"/>
    <route id="260" edges="4i 1o 5o"/>
    <route id="261" edges="2i 3o"/>
    <route id="262" edges="3i 2o"/>
    <route id="263" edges="6i 7o"/>
    <route id="264" edges="2i 3o"/>
    <route id="265" edges="4i 1o 5o"/>
    <route id="266" edges="5i 1i 4o"/>
    <route id="267" edges="4i 1o 5o"/>
    <route id="268" edges="3i 2o"/>
    <route id="269" edges="2i 3o"/>
    <route id="270" edges="5i 1i 4o"/>
    <route id="271" edges="6i 7o"/>
    <route id="272" edges="2i 3o"/>
    <route id="273" edges="7i 6o"/>
    <route id="274" edges="5i 1i 4o"/>
    <route id="275" edges="2i 3o"/>
    <route id="276" edges="5i 1i 4o"/>
    <route id="277" edges="2i 3o"/>
    <route id="278" edges="7i 6o"/>
    <route id="279" edges="7i 6o"/>
    <route id="280" edges="4i 1o 5o"/>
    <route id="281" edges="7i 6o"/>
    <route id="282" edges="3i 2o"/>
    <route id="283" edges="2i 3o"/>
    <route id="284" edges="5i 1i 4o"/>
    <route id="285" edges="4i 1o 5o"/>
    <route id="286" edges="7i 6o"/>
    <route id="287" edges="6i 7o"/>
    <route id="288" edges="4i 1o 5o"/>
    <route id="289" edges="2i 3o"/>
    <route id="290" edges="5i 1i 4o"/>
    <route id="291" edges="4i 1o 5o"/>
    <route id="292" edges="3i 2o"/>
    <route id="293" edges="6i 7o"/>
    <route id="294" edges="3i 2o"/>
    <route id="295" edges="4i 1o 5o"/>
    <route id="296" edges="3i 2o"/>
    <route id="297" edges="6i 7o"/>
    <route id="298" edges="2i 3o"/>
    <route id="299" edges="4i 1o 5o"/>
    <route id="300" edges="5i 1i 4o"/>
    <route id="301" edges="4i 1o 5o"/>
    <route id="302" edges="6i 7o"/>
    <route id="303" edges="6i 7o"/>
    <route id="304" edges="5i 1i 4o"/>
    <route id="305" edges="7i 6o"/>
    <route id="306" edges="4i 1o 5o"/>
    <route id="307" edges="2i 3o"/>
    <route id="308" edges="6i 7o"/>
    <route id="309" edges="7i 6o"/>
    <route id="310" edges="5i 1i 4o"/>
    <route id="311" edges="7i 6o"/>
    <route id="312" edges="2i 3o"/>
    <route id="313" edges="6i 7o"/>
    <route id="314" edges="2i 3o"/>
    <route id="315" edges="6i 7o"/>
    <route id="316" edges="5i 1i 4o"/>
    <route id="317" edges="7i 6o"/>
    <route id="318" edges="6i 7o"/>
    <route id="319" edges="5i 1i 4o"/>
    <route id="320" edges="3i 2o"/>
    <route id="321" edges="3i 2o"/>
    <route id="322" edges="6i 7o"/>
    <route id="323" edges="7i 6o"/>
    <route id="324" edges="3i 2o"/>
    <route id="325" edges="6i 7o"/>
    <route id="326" edges="3i 2o"/>
    <route id="327" edges="5i 1i 4o"/>
    <route id="328" edges="7i 6o"/>
    <route id="329" edges="2i 3o"/>
    <route id="330" edges="2i 3o"/>
    <route id="331" edges="7i 6o"/>
    <route id="332" edges="6i 7o"/>
    <route id="333" edges="7i 6o"/>
    <route id="334" edges="4i 1o 5o"/>
    <route id="335" edges="5i 1i 4o"/>
    <route id="336" edges="7i 6o"/>
    <route id="337" edges="2i 3o"/>
    <route id="338" edges="6i 7o"/>
    <route id="339" edges="2i 3o"/>
    <route id="340" edges="5i 1i 4o"/>
    <route id="341" edges="7i 6o"/>
    <route id="342" edges="2i 3o"/>
    <route id="343" edges="2i 3o"/>
    <route id="344" edges="2i 3o"/>
    <route id="345" edges="7i 6o"/>
    <route id="346" edges="2i 3o"/>
    <route id="347" edges="6i 7o"/>
    <route id="348" edges="3i 2o"/>

    <vehicle id="1_8" route="1" depart="8" />
    <vehicle id="2_9" route="2" depart="9" />
    <vehicle id="3_13" route="3" depart="13" />
    <vehicle id="4_18" route="4" depart="18" />
    <vehicle id="5_20" route="5" depart="20" />
    <vehicle id="6_42" route="6" depart="42" />
    <vehicle id="7_45" route="7" depart="45" />
    <vehicle id="8_76" route="8" depart="76" />
    <vehicle id="9_80" route="9" depart="80" />
    <vehicle id="10_83" route="10" depart="83" />
    <vehicle id="11_84" route="11" depart="84" />
    <vehicle id="12_98" route="12" depart="98" />
    <vehicle id="13_106" route="13" depart="106" />
    <vehicle id="14_166" route="14" depart="166" />
    <vehicle id="15_169" route="15" depart="169" />
    <vehicle id="16_174" route="16" depart="174" />
    <vehicle id="17_193" route="17" depart="193" />
    <vehicle id="18_195" route="18" depart="195" />
    <vehicle id="19_197" route="19" depart="197" />
    <vehicle id="20_208" route="20" depart="208" />
    <vehicle id="21_211" route="21" depart="211" />
    <vehicle id="22_248" route="22" depart="248" />
    <vehicle id="23_256" route="23" depart="256" />
    <vehicle id="24_277" route="24" depart="277" />
    <vehicle id="25_291" route="25" depart="291" />
    <vehicle id="26_299" route="26" depart="299" />
    <vehicle id="27_303" route="27" depart="303" />
    <vehicle id="28_305" route="28" depart="305" />
    <vehicle id="29_330" route="29" depart="330" />
    <vehicle id="30_337" route="30" depart="337" />
    <vehicle id="31_363" route="31" depart="363" />
    <vehicle id="32_367" route="32" depart="367" />
    <vehicle id="33_386" route="33" depart="386" />
    <vehicle id="34_399" route="34" depart="399" />
    <vehicle id="35_406" route="35" depart="406" />
    <vehicle id="36_412" route="36" depart="412" />
    <vehicle id="37_420" route="37" depart="420" />
    <vehicle id="38_423" route="38" depart="423" />
    <vehicle id="39_427" route="39" depart="427" />
    <vehicle id="40_431" route="40" depart="431" />
    <vehicle id="41_444" route="41" depart="444" />
    <vehicle id="42_447" route="42" depart="447" />
    <vehicle id="43_449" route="43" depart="449" />
    <vehicle id="44_456" route="44" depart="456" />
    <vehicle id="45_462" route="45" depart="462" />
    <vehicle id="46_482" route="46" depart="482" />
    <vehicle id="47_486" route="47" depart="486" />
    <vehicle id="48_492" route="48" depart="492" />
    <vehicle id="49_499" route="49" depart="499" />
    <vehicle id="50_531" route="50" depart="531" />
    <vehicle id="51_545" route="51" depart="545" />
    <vehicle id="52_557" route="52" depart="557" />
    <vehicle id="53_576" route="53" depart="576" />
    <vehicle id="54_585" route="54" depart="585" />
    <vehicle id="55_602" route="55" depart="602" />
    <vehicle id="56_604" route="56" depart="604" />
    <vehicle id="57_612" route="57" depart="612" />
    <vehicle id="58_636" route="58" depart="636" />
    <vehicle id="59_644" route="59" depart="644" />
    <vehicle id="60_649" route="60" depart="649" />
    <vehicle id="61_650" route="61" depart="650" />
    <vehicle id="62_652" route="62" depart="652" />
    <vehicle id="63_653" route="63" depart="653" />
    <vehicle id="64_656" route="64" depart="656" />
    <vehicle id="65_684" route="65" depart="684" />
    <vehicle id="66_698" route="66" depart="698" />
    <vehicle id="67_701" route="67" depart="701" />
    <vehicle id="68_708" route="68" depart="708" />
    <vehicle id="69_717" route="69" depart="717" />
    <vehicle id="70_721" route="70" depart="721" />
    <vehicle id="71_730" route="71" depart="730" />
    <vehicle id="72_736" route="72" depart="736" />
    <vehicle id="73_737" route="73" depart="737" />
    <vehicle id="74_742" route="74" depart="742" />
    <vehicle id="75_749" route="75" depart="749" />
    <vehicle id="76_754" route="76" depart="754" />
    <vehicle id="77_766" route="77" depart="766" />
    <vehicle id="78_767" route="78" depart="767" />
    <vehicle id="79_769" route="79" depart="769" />
    <vehicle id="80_791" route="80" depart="791" />
    <vehicle id="81_795" route="81" depart="795" />
    <vehicle id="82_813" route="82" depart="813" />
    <vehicle id="83_815" route="83" depart="815" />
    <vehicle id="84_819" route="84" depart="819" />
    <vehicle id="85_835" route="85" depart="835" />
    <vehicle id="86_838" route="86" depart="838" />
    <vehicle id="87_844" route="87" depart="844" />
    <vehicle id="88_855" route="88" depart="855" />
    <vehicle id="89_862" route="89" depart="862" />
    <vehicle id="90_863" route="90" depart="863" />
    <vehicle id="91_870" route="91" depart="870" />
    <vehicle id="92_876" route="92" depart="876" />
    <vehicle id="93_879" route="93" depart="879" />
    <vehicle id="94_885" route="94" depart="885" />
    <vehicle id="95_890" route="95" depart="890" />
    <vehicle id="96_901" route="96" depart="901" />
    <vehicle id="97_904" route="97" depart="904" />
    <vehicle id="98_916" route="98" depart="916" />
    <vehicle id="99_917" route="99" depart="917" />
    <vehicle id="100_941" route="100" depart="941" />
    <vehicle id="101_945" route="101" depart="945" />
    <vehicle id="102_958" route="102" depart="958" />
    <vehicle id="103_966" route="103" depart="966" />
    <vehicle id="104_970" route="104" depart="970" />
    <vehicle id="105_972" route="105" depart="972" />
    <vehicle id="106_987" route="106" depart="987" />
    <vehicle id="107_998" route="107" depart="998" />
    <vehicle id="108_999" route="108" depart="999" />
    <vehicle id="109_1016" route="109" depart="1016" />
    <vehicle id="110_1020" route="110" depart="1020" />
    <vehicle id="111_1028" route="111" depart="1028" />
    <vehicle id="112_1053" route="112" depart="1053" />
    <vehicle id="113_1055" route="113" depart="1055" />
    <vehicle id="114_1069" route="114" depart="1069" />
    <vehicle id="115_1075" route="115" depart="1075" />
    <vehicle id="116_1077" route="116" depart="1077" />
    <vehicle id="117_1084" route="117" depart="1084" />
    <vehicle id="118_1133" route="118" depart="1133" />
    <vehicle id="119_1135" route="119" depart="1135" />
    <vehicle id="120_1153" route="120" depart="1153" />
    <vehicle id="121_1158" route="121" depart="1158" />
    <vehicle id="122_1160" route="122" depart="1160" />
    <vehicle id="123_1161" route="123" depart="1161" />
    <vehicle id="124_1167" route="124" depart="1167" />
    <vehicle id="125_1184" route="125" depart="1184" />
    <vehicle id="126_1197" route="126" depart="1197" />
    <vehicle id="127_1201" route="127" depart="1201" />
    <vehicle id="128_1204" route="128" depart="1204" />
    <vehicle id="129_1228" route="129" depart="1228" />
    <vehicle id="130_1271" route="130" depart="1271" />
    <vehicle id="131_1280" route="131" depart="1280" />
    <vehicle id="132_1288" route="132" depart="1288" />
    <vehicle id="133_1304" route="133" depart="1304" />
    <vehicle id="134_1310" route="134" depart="1310" />
    <vehicle id="135_1321" route="135" depart="1321" />
    <vehicle id="136_1323" route="136" depart="1323" />
    <vehicle id="137_1330" route="137" depart="1330" />
    <vehicle id="138_1332" route="138" depart="1332" />
    <vehicle id="139_1333" route="139" depart="1333" />
    <vehicle id="140_1343" route="140" depart="1343" />
    <vehicle id="141_1371" route="141" depart="1371" />
    <vehicle id="142_1374" route="142" depart="1374" />
    <vehicle id="143_1376" route="143" depart="1376" />
    <vehicle id="144_1377" route="144" depart="1377" />
    <vehicle id="145_1383" route="145" depart="1383" />
    <vehicle id="146_1386" route="146" depart="1386" />
    <vehicle id="147_1413" route="147" depart="1413" />
    <vehicle id="148_1435" route="148" depart="1435" />
    <vehicle id="149_1437" route="149" depart="1437" />
    <vehicle id="150_1452" route="150" depart="1452" />
    <vehicle id="151_1470" route="151" depart="1470" />
    <vehicle id="152_1484" route="152" depart="1484" />
    <vehicle id="153_1536" route="153" depart="1536" />
    <vehicle id="154_1542" route="154" depart="1542" />
    <vehicle id="155_1545" route="155" depart="1545" />
    <vehicle id="156_1576" route="156" depart="1576" />
    <vehicle id="157_1595" route="157" depart="1595" />
    <vehicle id="158_1602" route="158" depart="1602" />
    <vehicle id="159_1615" route="159" depart="1615" />
    <vehicle id="160_1637" route="160" depart="1637" />
    <vehicle id="161_1663" route="161" depart="1663" />
    <vehicle id="162_1713" route="162" depart="1713" />
    <vehicle id="163_1723" route="163" depart="1723" />
    <vehicle id="164_1731" route="164" depart="1731" />
    <vehicle id="165_1760" route="165" depart="1760" />
    <vehicle id="166_1763" route="166" depart="1763" />
    <vehicle id="167_1768" route="167" depart="1768" />
    <vehicle id="168_1787" route="168" depart="1787" />
    <vehicle id="169_1790" route="169" depart="1790" />
    <vehicle id="170_1794" route="170" depart="1794" />
    <vehicle id="171_1795" route="171" depart="1795" />
    <vehicle id="172_1813" route="172" depart="1813" />
    <vehicle id="173_1818" route="173" depart="1818" />
    <vehicle id="174_1832" route="174" depart="1832" />
    <vehicle id="175_1833" route="175" depart="1833" />
    <vehicle id="176_1834" route="176" depart="1834" />
    <vehicle id="177_1840" route="177" depart="1840" />
    <vehicle id="178_1841" route="178" depart="1841" />
    <vehicle id="179_1844" route="179" depart="1844" />
    <vehicle id="180_1856" route="180" depart="1856" />
    <vehicle id="181_1879" route="181" depart="1879" />
    <vehicle id="182_1887" route="182" depart="1887" />
    <vehicle id="183_1899" route="183" depart="1899" />
    <vehicle id="184_1904" route="184" depart="1904" />
    <vehicle id="185_1915" route="185" depart="1915" />
    <vehicle id="186_1918" route="186" depart="1918" />
    <vehicle id="187_1920" route="187" depart="1920" />
    <vehicle id="188_1928" route="188" depart="1928" />
    <vehicle id="189_1935" route="189" depart="1935" />
    <vehicle id="190_1953" route="190" depart="1953" />
    <vehicle id="191_1957" route="191" depart="1957" />
    <vehicle id="192_1971" route="192" depart="1971" />
    <vehicle id="193_1979" route="193" depart="1979" />
    <vehicle id="194_1981" route="194" depart="1981" />
    <vehicle id="195_1983" route="195" depart="1983" />
    <vehicle id="196_1990" route="196" depart="1990" />
    <vehicle id="197_1995" route="197" depart="1995" />
    <vehicle id="198_2002" route="198" depart="2002" />
    <vehicle id="199_2034" route="199" depart="2034" />
    <vehicle id="200_2050" route="200" depart="2050" />
    <vehicle id="201_2054" route="201" depart="2054" />
    <vehicle id="202_2057" route="202" depart="2057" />
    <vehicle id="203_2059" route="203" depart="2059" />
    <vehicle id="204_2067" route="204" depart="2067" />
    <vehicle id="205_2068" route="205" depart="2068" />
    <vehicle id="206_2075" route="206" depart="2075" />
    <vehicle id="207_2085" route="207" depart="2085" />
    <vehicle id="208_2093" route="208" depart="2093" />
    <vehicle id="209_2100" route="209" depart="2100" />
    <vehicle id="210_2127" route="210" depart="2127" />
    <vehicle id="211_2128" route="211" depart="2128" />
    <vehicle id="212_2132" route="212" depart="2132" />
    <vehicle id="213_2135" route="213" depart="2135" />
    <vehicle id="214_2159" route="214" depart="2159" />
    <vehicle id="215_2165" route="215" depart="2165" />
    <vehicle id="216_2170" route="216" depart="2170" />
    <vehicle id="217_2172" route="217" depart="2172" />
    <vehicle id="218_2176" route="218" depart="2176" />
    <vehicle id="219_2182" route="219" depart="2182" />
    <vehicle id="220_2190" route="220" depart="2190" />
    <vehicle id="221_2222" route="221" depart="2222" />
    <vehicle id="222_2227" route="222" depart="2227" />
    <vehicle id="223_2230" route="223" depart="2230" />
    <vehicle id="224_2231" route="224" depart="2231" />
    <vehicle id="225_2237" route="225" depart="2237" />
    <vehicle id="226_2249" route="226" depart="2249" />
    <vehicle id="227_2253" route="227" depart="2253" />
    <vehicle id="228_2265" route="228" depart="2265" />
    <vehicle id="229_2267" route="229" depart="2267" />
    <vehicle id="230_2285" route="230" depart="2285" />
    <vehicle id="231_2297" route="231" depart="2297" />
    <vehicle id="232_2308" route="232" depart="2308" />
    <vehicle id="233_2322" route="233" depart="2322" />
    <vehicle id="234_2339" route="234" depart="2339" />
    <vehicle id="235_2340" route="235" depart="2340" />
    <vehicle id="236_2359" route="236" depart="2359" />
    <vehicle id="237_2360" route="237" depart="2360" />
    <vehicle id="238_2372" route="238" depart="2372" />
    <vehicle id="239_2378" route="239" depart="2378" />
    <vehicle id="240_2383" route="240" depart="2383" />
    <vehicle id="241_2401" route="241" depart="2401" />
    <vehicle id="242_2407" route="242" depart="2407" />
    <vehicle id="243_2416" route="243" depart="2416" />
    <vehicle id="244_2424" route="244" depart="2424" />
    <vehicle id="245_2425" route="245" depart="2425" />
    <vehicle id="246_2433" route="246" depart="2433" />
    <vehicle id="247_2441" route="247" depart="2441" />
    <vehicle id="248_2453" route="248" depart="2453" />
    <vehicle id="249_2459" route="249" depart="2459" />
    <vehicle id="250_2463" route="250" depart="2463" />
    <vehicle id="251_2469" route="251" depart="2469" />
    <vehicle id="252_2479" route="252" depart="2479" />
    <vehicle id="253_2481" route="253" depart="2481" />
    <vehicle id="254_2489" route="254" depart="2489" />
    <vehicle id="255_2495" route="255" depart="2495" />
    <vehicle id="256_2498" route="256" depart="2498" />
    <vehicle id="257_2500" route="257" depart="2500" />
    <vehicle id="258_2502" route="258" depart="2502" />
    <vehicle id="259_2507" route="259" depart="2507" />
    <vehicle id="260_2528" route="260" depart="2528" />
    <vehicle id="261_2542" route="261" depart="2542" />
    <vehicle id="262_2556" route="262" depart="2556" />
    <vehicle id="263_2573" route="263" depart="2573" />
    <vehicle id="264_2594" route="264" depart="2594" />
    <vehicle id="265_2598" route="265" depart="2598" />
    <vehicle id="266_2601" route="266" depart="2601" />
    <vehicle id="267_2620" route="267" depart="2620" />
    <vehicle id="268_2627" route="268" depart="2627" />
    <vehicle id="269_2641" route="269" depart="2641" />
    <vehicle id="270_2650" route="270" depart="2650" />
    <vehicle id="271_2695" route="271" depart="2695" />
    <vehicle id="272_2706" route="272" depart="2706" />
    <vehicle id="273_2707" route="273" depart="2707" />
    <vehicle id="274_2715" route="274" depart="2715" />
    <vehicle id="275_2722" route="275" depart="2722" />
    <vehicle id="276_2732" route="276" depart="2732" />
    <vehicle id="277_2742" route="277" depart="2742" />
    <vehicle id="278_2746" route="278" depart="2746" />
    <vehicle id="279_2780" route="279" depart="2780" />
    <vehicle id="280_2785" route="280" depart="2785" />
    <vehicle id="281_2790" route="281" depart="2790" />
    <vehicle id="282_2818" route="282" depart="2818" />
    <vehicle id="283_2822" route="283" depart="2822" />
    <vehicle id="284_2839" route="284" depart="2839" />
    <vehicle id="285_2842" route="285" depart="2842" />
    <vehicle id="286_2854" route="286" depart="2854" />
    <vehicle id="287_2855" route="287" depart="2855" />
    <vehicle id="288_2864" route="288" depart="2864" />
    <vehicle id="289_2886" route="289" depart="2886" />
    <vehicle id="290_2894" route="290" depart="2894" />
    <vehicle id="291_2910" route="291" depart="2910" />
    <vehicle id="292_2920" route="292" depart="2920" />
    <vehicle id="293_2945" route="293" depart="2945" />
    <vehicle id="294_2948" route="294" depart="2948" />
    <vehicle id="295_2956" route="295" depart="2956" />
    <vehicle id="296_2963" route="296" depart="2963" />
    <vehicle id="297_2966" route="297" depart="2966" />
    <vehicle id="298_2973" route="298" depart="2973" />
    <vehicle id="299_2985" route="299" depart="2985" />
    <vehicle id="300_2991" route="300" depart="2991" />
    <vehicle id="301_3027" route="301" depart="3027" />
    <vehicle id="302_3030" route="302" depart="3030" />
    <vehicle id="303_3035" route="303" depart="3035" />
    <vehicle id="304_3080" route="304" depart="3080" />
    <vehicle id="305_3087" route="305" depart="3087" />
    <vehicle id="306_3091" route="306" depart="3091" />
    <vehicle id="307_3093" route="307" depart="3093" />
    <vehicle id="308_3099" route="308" depart="3099" />
    <vehicle id="309_3105" route="309" depart="3105" />
    <vehicle id="310_3123" route="310" depart="3123" />
    <vehicle id="311_3124" route="311" depart="3124" />
    <vehicle id="312_3146" route="312" depart="3146" />
    <vehicle id="313_3157" route="313" depart="3157" />
    <vehicle id="314_3159" route="314" depart="3159" />
    <vehicle id="315_3162" route="315" depart="3162" />
    <vehicle id="316_3164" route="316" depart="3164" />