<routes>

    <route id="1" edges="7i 6o"/>
    <route id="2" edges="4i 1o 5o"/>
    <route id="3" edges="4i 1o 5o"/>
    <route id="4" edges="7i 6o"/>
    <route id="5" edges="5i 1i 4o"/>
    <route id="6" edges="6i 7o"/>
    <route id="7" edges="2i 3o"/>
    <route id="8" edges="6i 7o"/>
    <route id="9" edges="5i 1i 4o"/>
    <route id="10" edges="5i 1i 4o"/>
    <route id="11" edges="6i 7o"/>
    <route id="12" edges="2i 3o"/>
    <route id="13" edges="5i 1i 4o"/>
    <route id="14" edges="5i 1i 4o"/>
    <route id="15" edges="7i 6o"/>
    <route id="16" edges="7i 6o"/>
    <route id="17" edges="3i 2o"/>
    <route id="18" edges="2i 3o"/>
    <route id="19" edges="7i 6o"/>
    <route id="20" edges="7i 6o"/>
    <route id="21" edges="5i 1i 4o"/>
    <route id="22" edges="7i 6o"/>
    <route id="23" edges="4i 1o 5o"/>
    <route id="24" edges="3i 2o"/>
    <route id="25" edges="7i 6o"/>
    <route id="26" edges="4i 1o 5o"/>
    <route id="27" edges="4i 1o 5o"/>
    <route id="28" edges="4i 1o 5o"/>
    <route id="29" edges="5i 1i 4o"/>
    <route id="30" edges="2i 3o"/>
    <route id="31" edges="2i 3o"/>
    <route id="32" edges="3i 2o"/>
    <route id="33" edges="2i 3o"/>
    <route id="34" edges="3i 2o"/>
    <route id="35" edges="2i 3o"/>
    <route id="36" edges="2i 3o"/>
    <route id="37" edges="3i 2o"/>
    <route id="38" edges="4i 1o 5o"/>
    <route id="39" edges="4i 1o 5o"/>
    <route id="40" edges="7i 6o"/>
    <route id="41" edges="6i 7o"/>
    <route id="42" edges="5i 1i 4o"/>
    <route id="43" edges="2i 3o"/>
    <route id="44" edges="7i 6o"/>
    <route id="45" edges="3i 2o"/>
    <route id="46" edges="3i 2o"/>
    <route id="47" edges="6i 7o"/>
    <route id="48" edges="6i 7o"/>
    <route id="49" edges="7i 6o"/>
    <route id="50" edges="2i 3o"/>
    <route id="51" edges="7i 6o"/>
    <route id="52" edges="2i 3o"/>
    <route id="53" edges="2i 3o"/>
    <route id="54" edges="4i 1o 5o"/>
    <route id="55" edges="6i 7o"/>
    <route id="56" edges="2i 3o"/>
    <route id="57" edges="4i 1o 5o"/>
    <route id="58" edges="2i 3o"/>
    <route id="59" edges="6i 7o"/>
    <route id="60" edges="2i 3o"/>
    <route id="61" edges="3i 2o"/>
    <route id="62" edges="4i 1o 5o"/>
    <route id="63" edges="4i 1o 5o"/>
    <route id="64" edges="5i 1i 4o"/>
    <route id="65" edges="6i 7o"/>
    <route id="66" edges="3i 2o"/>
    <route id="67" edges="4i 1o 5o"/>
    <route id="68" edges="5i 1i 4o"/>
    <route id="69" edges="5i 1i 4o"/>
    <route id="70" edges="6i 7o"/>
    <route id="71" edges="6i 7o"/>
    <route id="72" edges="4i 1o 5o"/>
    <route id="73" edges="4i 1o 5o"/>
    <route id="74" edges="6i 7o"/>
    <route id="75" edges="6i 7o"/>
    <route id="76" edges="2i 3o"/>
    <route id="77" edges="5i 1i 4o"/>
    <route id="78" edges="3i 2o"/>
    <route id="79" edges="5i 1i 4o"/>
    <route id="80" edges="2i 3o"/>
    <route id="81" edges="6i 7o"/>
    <route id="82" edges="2i 3o"/>
    <route id="83" edges="5i 1i 4o"/>
    <route id="84" edges="2i 3o"/>
    <route id="85" edges="7i 6o"/>
    <route id="86" edges="2i 3o"/>
    <route id="87" edges="3i 2o"/>
    <route id="88" edges="2i 3o"/>
    <route id="89" edges="4i 1o 5o"/>
    <route id="90" edges="4i 1o 5o"/>
    <route id="91" edges="5i 1i 4o"/>
    <route id="92" edges="4i 1o 5o"/>
    <route id="93" edges="2i 3o"/>
    <route id="94" edges="2i 3o"/>
    <route id="95" edges="5i 1i 4o"/>
    <route id="96" edges="5i 1i 4o"/>
    <route id="97" edges="2i 3o"/>
    <route id="98" edges="5i 1i 4o"/>
    <route id="99" edges="3i 2o"/>
    <route id="100" edges="6i 7o"/>
    <route id="101" edges="7i 6o"/>
    <route id="102" edges="2i 3o"/>
    <route id="103" edges="4i 1o 5o"/>
    <route id="104" edges="5i 1i 4o"/>
    <route id="105" edges="3i 2o"/>
    <route id="106" edges="5i 1i 4o"/>
    <route id="107" edges="2i 3o"/>
    <route id="108" edges="2i 3o"/>
    <route id="109" edges="6i 7o"/>
    <route id="110" edges="4i 1o 5o"/>
    <route id="111" edges="6i 7o"/>
    <route id="112" edges="5i 1i 4o"/>
    <route id="113" edges="7i 6o"/>
    <route id="114" edges="4i 1o 5o"/>
    <route id="115" edges="2i 3o"/>
    <route id="116" edges="5i 1i 4o"/>
    <route id="117" edges="4i 1o 5o"/>
    <route id="118" edges="5i 1i 4o"/>
    <route id="119" edges="6i 7o"/>
    <route id="120" edges="2i 3o"/>
    <route id="121" edges="6i 7o"/>
    <route id="122" edges="2i 3o"/>
    <route id="123" edges="3i 2o"/>
    <route id="124" edges="2i 3o"/>
    <route id="125" edges="7i 6o"/>
    <route id="126" edges="4i 1o 5o"/>
    <route id="127" edges="2i 3o"/>
    <route id="128" edges="7i 6o"/>
    <route id="129" edges="3i 2o"/>
    <route id="130" edges="4i 1o 5o"/>
    <route id="131" edges="5i 1i 4o"/>
    <route id="132" edges="7i 6o"/>
    <route id="133" edges="4i 1o 5o"/>
    <route id="134" edges="6i 7o"/>
    <route id="135" edges="7i 6o"/>
    <route id="136" edges="3i 2o"/>
    <route id="137" edges="2i 3o"/>
    <route id="138" edges="3i 2o"/>
    <route id="139" edges="6i 7o"/>
    <route id="140" edges="3i 2o"/>
    <route id="141" edges="3i 2o"/>
    <route id="142" edges="2i 3o"/>
    <route id="143" edges="7i 6o"/>
    <route id="144" edges="2i 3o"/>
    <route id="145" edges="2i 3o"/>
    <route id="146" edges="5i 1i 4o"/>
    <route id="147" edges="6i 7o"/>
    <route id="148" edges="2i 3o"/>
    <route id="149" edges="2i 3o"/>
    <route id="150" edges="6i 7o"/>
    <route id="151" edges="3i 2o"/>
    <route id="152" edges="6i 7o"/>
    <route id="153" edges="5i 1i 4o"/>
    <route id="154" edges="7i 6o"/>
    <route id="155" edges="7i 6o"/>
    <route id="156" edges="2i 3o"/>
    <route id="157" edges="3i 2o"/>
    <route id="158" edges="6i 7o"/>
    <route id="159" edges="4i 1o 5o"/>
    <route id="160" edges="2i 3o"/>
    <route id="161" edges="7i 6o"/>
    <route id="162" edges="4i 1o 5o"/>
    <route id="163" edges="4i 1o 5o"/>
    <route id="164" edges="7i 6o"/>
    <route id="165" edges="4i 1o 5o"/>
    <route id="166" edges="7i 6o"/>
    <route id="167" edges="5i 1i 4o"/>
    <route id="168" edges="6i 7o"/>
    <route id="169" edges="5i 1i 4o"/>
    <route id="170" edges="7i 6o"/>
    <route id="171" edges="4i 1o 5o"/>
    <route id="172" edges="6i 7o"/>
    <route id="173" edges="6i 7o"/>
    <route id="174" edges="6i 7o"/>
    <route id="175" edges="3i 2o"/>
    <route id="176" edges="3i 2o"/>
    <route id="177" edges="7i 6o"/>
    <route id="178" edges="6i 7o"/>
    <route id="179" edges="2i 3o"/>
    <route id="180" edges="6i 7o"/>
    <route id="181" edges="3i 2o"/>
    <route id="182" edges="3i 2o"/>
    <route id="183" edges="4i 1o 5o"/>
    <route id="184" edges="4i 1o 5o"/>
    <route id="185" edges="4i 1o 5o"/>
    <route id="186" edges="2i 3o"/>
    <route id="187" edges="5i 1i 4o"/>
    <route id="188" edges="7i 6o"/>
    <route id="189" edges="5i 1i 4o"/>
    <route id="190" edges="5i 1i 4o"/>
    <route id="191" edges="5i 1i 4o"/>
    <route id="192" edges="7i 6o"/>
    <route id="193" edges="4i 1o 5o"/>
    <route id="194" edges="3i 2o"/>
    <route id="195" edges="4i 1o 5o"/>
    <route id="196" edges="4i 1o 5o"/>
    <route id="197" edges="3i 2o"/>
    <route id="198" edges="6i 7o"/>
    <route id="199" edges="2i 3o"/>
    <route id="200" edges="3i 2o"/>
    <route id="201" edges="7i 6o"/>
    <route id="202" edges="6i 7o"/>
    <route id="203" edges="6i 7o"/>
    <route id="204" edges="4i 1o 5o"/>
    <route id="205" edges="2i 3o"/>
    <route id="206" edges="4i 1o 5o"/>
    <route id="207" edges="7i 6o"/>
    <route id="208" edges="2i 3o"/>
    <route id="209" edges="2i 3o"/>
    <route id="210" edges="7i 6o"/>
    <route id="211" edges="2i 3o"/>
    <route id="212" edges="5i 1i 4o"/>
    <route id="213" edges="6i 7o"/>
    <route id="214" edges="2i 3o"/>
    <route id="215" edges="5i 1i 4o"/>
    <route id="216" edges="5i 1i 4o"/>
    <route id="217" edges="3i 2o"/>
    <route id="218" edges="5i 1i 4o"/>
    <route id="219" edges="7i 6o"/>
    <route id="220" edges="7i 6o"/>
    <route id="221" edges="4i 1o 5o"/>
    <route id="222" edges="7i 6o"/>
    <route id="223" edges="7i 6o"/>
    <route id="224" edges="3i 2o"/>
    <route id="225" edges="3i 2o"/>
    <route id="226" edges="5i 1i 4o"/>
    <route id="227" edges="7i 6o"/>
    <route id="228" edges="6i 7o"/>
    <route id="229" edges="7i 6o"/>
    <route id="230" edges="7i 6o"/>
    <route id="231" edges="6i 7o"/>
    <route id="232" edges="2i 3o"/>
    <route id="233" edges="7i 6o"/>
    <route id="234" edges="4i 1o 5o"/>
    <route id="235" edges="3i 2o"/>
    <route id="236" edges="3i 2o"/>
    <route id="237" edges="7i 6o"/>
    <route id="238" edges="7i 6o"/>
    <route id="239" edges="5i 1i 4o"/>
    <route id="240" edges="3i 2o"/>
    <route id="241" edges="3i 2o"/>
    <route id="242" edges="4i 1o 5o"/>
    <route id="243" edges="4i 1o 5o"/>
    <route id="244" edges="4i 1o 5o"/>
    <route id="245" edges="4i 1o 5o"/>
    <route id="246" edges="7i 6o"/>
    <route id="247" edges="4i 1o 5o"/>
    <route id="248" edges="5i 1i 4o"/>
    <route id="249" edges="2i 3o"/>
    <route id="250" edges="3i 2o"/>
    <route id="251" edges="6i 7o"/>
    <route id="252" edges="5i 1i 4o"/>
    <route id="253" edges="2i 3o"/>
    <route id="254" edges="7i 6o"/>
    <route id="255" edges="5i 1i 4o"/>
    <route id="256" edges="7i 6o"/>
    <route id="257" edges="5i 1i 4o"/>
    <route id="258" edges="4i 1o 5o"/>
    <route id="259" edges="3i 2o"/>
    <route id="260" edges="4i 1o 5o"/>
    <route id="261" edges="6i 7o"/>
    <route id="262" edges="7i 6o"/>
    <route id="263" edges="2i 3o"/>
    <route id="264" edges="5i 1i 4o"/>
    <route id="265" edges="7i 6o"/>
    <route id="266" edges="7i 6o"/>
    <route id="267" edges="7i 6o"/>
    <route id="268" edges="5i 1i 4o"/>
    <route id="269" edges="5i 1i 4o"/>
    <route id="270" edges="7i 6o"/>
    <route id="271" edges="2i 3o"/>
    <route id="272" edges="5i 1i 4o"/>
    <route id="273" edges="7i 6o"/>
    <route id="274" edges="4i 1o 5o"/>
    <route id="275" edges="2i 3o"/>
    <route id="276" edges="4i 1o 5o"/>
    <route id="277" edges="2i 3o"/>
    <route id="278" edges="7i 6o"/>
    <route id="279" edges="4i 1o 5o"/>
    <route id="280" edges="2i 3o"/>
    <route id="281" edges="6i 7o"/>
    <route id="282" edges="3i 2o"/>
    <route id="283" edges="4i 1o 5o"/>
    <route id="284" edges="4i 1o 5o"/>
    <route id="285" edges="2i 3o"/>
    <route id="286" edges="2i 3o"/>
    <route id="287" edges="6i 7o"/>
    <route id="288" edges="6i 7o"/>
    <route id="289" edges="3i 2o"/>
    <route id="290" edges="3i 2o"/>
    <route id="291" edges="3i 2o"/>
    <route id="292" edges="6i 7o"/>
    <route id="293" edges="4i 1o 5o"/>
    <route id="294" edges="6i 7o"/>
    <route id="295" edges="4i 1o 5o"/>
    <route id="296" edges="3i 2o"/>
    <route id="297" edges="4i 1o 5o"/>
    <route id="298" edges="5i 1i 4o"/>
    <route id="299" edges="7i 6o"/>
    <route id="300" edges="7i 6o"/>
    <route id="301" edges="4i 1o 5o"/>
    <route id="302" edges="3i 2o"/>
    <route id="303" edges="6i 7o"/>
    <route id="304" edges="3i 2o"/>
    <route id="305" edges="2i 3o"/>
    <route id="306" edges="7i 6o"/>
    <route id="307" edges="2i 3o"/>
    <route id="308" edges="7i 6o"/>
    <route id="309" edges="3i 2o"/>
    <route id="310" edges="3i 2o"/>
    <route id="311" edges="3i 2o"/>
    <route id="312" edges="2i 3o"/>
    <route id="313" edges="7i 6o"/>
    <route id="314" edges="4i 1o 5o"/>
    <route id="315" edges="6i 7o"/>
    <route id="316" edges="4i 1o 5o"/>
    <route id="317" edges="5i 1i 4o"/>
    <route id="318" edges="6i 7o"/>
    <route id="319" edges="3i 2o"/>
    <route id="320" edges="6i 7o"/>
    <route id="321" edges="2i 3o"/>
    <route id="322" edges="2i 3o"/>
    <route id="323" edges="3i 2o"/>
    <route id="324" edges="6i 7o"/>
    <route id="325" edges="4i 1o 5o"/>
    <route id="326" edges="5i 1i 4o"/>
    <route id="327" edges="3i 2o"/>
    <route id="328" edges="7i 6o"/>
    <route id="329" edges="4i 1o 5o"/>
    <route id="330" edges="5i 1i 4o"/>
    <route id="331" edges="2i 3o"/>
    <route id="332" edges="7i 6o"/>
    <route id="333" edges="5i 1i 4o"/>
    <route id="334" edges="2i 3o"/>
    <route id="335" edges="7i 6o"/>
    <route id="336" edges="2i 3o"/>
    <route id="337" edges="4i 1o 5o"/>
    <route id="338" edges="2i 3o"/>
    <route id="339" edges="5i 1i 4o"/>
    <route id="340" edges="5i 1i 4o"/>
    <route id="341" edges="4i 1o 5o"/>
    <route id="342" edges="5i 1i 4o"/>
    <route id="343" edges="4i 1o 5o"/>
    <route id="344" edges="3i 2o"/>
    <route id="345" edges="3i 2o"/>
    <route id="346" edges="7i 6o"/>
    <route id="347" edges="4i 1o 5o"/>
    <route id="348" edges="5i 1i 4o"/>
    <route id="349" edges="2i 3o"/>
    <route id="350" edges="4i 1o 5o"/>
    <route id="351" edges="7i 6o"/>
    <route id="352" edges="7i 6o"/>
    <route id="353" edges="3i 2o"/>
    <route id="354" edges="3i 2o"/>
    <route id="355" edges="2i 3o"/>
    <route id="356" edges="5i 1i 4o"/>
    <route id="357" edges="2i 3o"/>
    <route id="358" edges="3i 2o"/>
    <route id="359" edges="4i 1o 5o"/>
    <route id="360" edges="6i 7o"/>
    <route id="361" edges="3i 2o"/>
    <route id="362" edges="6i 7o"/>
    <route id="363" edges="4i 1o 5o"/>
    <route id="364" edges="3i 2o"/>
    <route id="365" edges="5i 1i 4o"/>
    <route id="366" edges="2i 3o"/>
    <route id="367" edges="2i 3o"/>
    <route id="368" edges="2i 3o"/>
    <route id="369" edges="4i 1o 5o"/>
    <route id="370" edges="3i 2o"/>
    <route id="371" edges="4i 1o 5o"/>
    <route id="372" edges="6i 7o"/>

    <vehicle id="1_17" route="1" depart="17" />
    <vehicle id="2_18" route="2" depart="18" />
    <vehicle id="3_28" route="3" depart="28" />
    <vehicle id="4_31" route="4" depart="31" />
    <vehicle id="5_38" route="5" depart="38" />
    <vehicle id="6_55" route="6" depart="55" />
    <vehicle id="7_64" route="7" depart="64" />
    <vehicle id="8_65" route="8" depart="65" />
    <vehicle id="9_70" route="9" depart="70" />
    <vehicle id="10_78" route="10" depart="78" />
    <vehicle id="11_79" route="11" depart="79" />
    <vehicle id="12_80" route="12" depart="80" />
    <vehicle id="13_82" route="13" depart="82" />
    <vehicle id="14_85" route="14" depart="85" />
    <vehicle id="15_86" route="15" depart="86" />
    <vehicle id="16_98" route="16" depart="98" />
    <vehicle id="17_106" route="17" depart="106" />
    <vehicle id="18_110" route="18" depart="110" />
    <vehicle id="19_122" route="19" depart="122" />
    <vehicle id="20_143" route="20" depart="143" />
    <vehicle id="21_144" route="21" depart="144" />
    <vehicle id="22_145" route="22" depart="145" />
    <vehicle id="23_155" route="23" depart="155" />
    <vehicle id="24_197" route="24" depart="197" />
    <vehicle id="25_200" route="25" depart="200" />
    <vehicle id="26_202" route="26" depart="202" />
    <vehicle id="27_234" route="27" depart="234" />
    <vehicle id="28_246" route="28" depart="246" />
    <vehicle id="29_248" route="29" depart="248" />
    <vehicle id="30_249" route="30" depart="249" />
    <vehicle id="31_290" route="31" depart="290" />
    <vehicle id="32_302" route="32" depart="302" />
    <vehicle id="33_339" route="33" depart="339" />
    <vehicle id="34_343" route="34" depart="343" />
    <vehicle id="35_346" route="35" depart="346" />
    <vehicle id="36_356" route="36" depart="356" />
    <vehicle id="37_362" route="37" depart="362" />
    <vehicle id="38_375" route="38" depart="375" />
    <vehicle id="39_378" route="39" depart="378" />
    <vehicle id="40_379" route="40" depart="379" />
    <vehicle id="41_380" route="41" depart="380" />
    <vehicle id="42_387" route="42" depart="387" />
    <vehicle id="43_392" route="43" depart="392" />
    <vehicle id="44_406" route="44" depart="406" />
    <vehicle id="45_425" route="45" depart="425" />
    <vehicle id="46_427" route="46" depart="427" />
    <vehicle id="47_428" route="47" depart="428" />
    <vehicle id="48_429" route="48" depart="429" />
    <vehicle id="49_432" route="49" depart="432" />
    <vehicle id="50_451" route="50" depart="451" />
    <vehicle id="51_458" route="51" depart="458" />
    <vehicle id="52_472" route="52" depart="472" />
    <vehicle id="53_503" route="53" depart="503" />
    <vehicle id="54_505" route="54" depart="505" />
    <vehicle id="55_514" route="55" depart="514" />
    <vehicle id="56_527" route="56" depart="527" />
    <vehicle id="57_535" route="57" depart="535" />
    <vehicle id="58_547" route="58" depart="547" />
    <vehicle id="59_559" route="59" depart="559" />
    <vehicle id="60_580" route="60" depart="580" />
    <vehicle id="61_591" route="61" depart="591" />
    <vehicle id="62_594" route="62" depart="594" />
    <vehicle id="63_599" route="63" depart="599" />
    <vehicle id="64_603" route="64" depart="603" />
    <vehicle id="65_609" route="65" depart="609" />
    <vehicle id="66_629" route="66" depart="629" />
    <vehicle id="67_660" route="67" depart="660" />
    <vehicle id="68_668" route="68" depart="668" />
    <vehicle id="69_671" route="69" depart="671" />
    <vehicle id="70_677" route="70" depart="677" />
    <vehicle id="71_687" route="71" depart="687" />
    <vehicle id="72_701" route="72" depart="701" />
    <vehicle id="73_703" route="73" depart="703" />
    <vehicle id="74_713" route="74" depart="713" />
    <vehicle id="75_719" route="75" depart="719" />
    <vehicle id="76_738" route="76" depart="738" />
    <vehicle id="77_744" route="77" depart="744" />
    <vehicle id="78_746" route="78" depart="746" />
    <vehicle id="79_786" route="79" depart="786" />
    <vehicle id="80_794" route="80" depart="794" />
    <vehicle id="81_800" route="81" depart="800" />
    <vehicle id="82_805" route="82" depart="805" />
    <vehicle id="83_806" route="83" depart="806" />
    <vehicle id="84_808" route="84" depart="808" />
    <vehicle id="85_814" route="85" depart="814" />
    <vehicle id="86_820" route="86" depart="820" />
    <vehicle id="87_821" route="87" depart="821" />
    <vehicle id="88_822" route="88" depart="822" />
    <vehicle id="89_826" route="89" depart="826" />
    <vehicle id="90_844" route="90" depart="844" />
    <vehicle id="91_851" route="91" depart="851" />
    <vehicle id="92_853" route="92" depart="853" />
    <vehicle id="93_854" route="93" depart="854" />
    <vehicle id="94_863" route="94" depart="863" />
    <vehicle id="95_866" route="95" depart="866" />
    <vehicle id="96_877" route="96" depart="877" />
    <vehicle id="97_885" route="97" depart="885" />
    <vehicle id="98_889" route="98" depart="889" />
    <vehicle id="99_892" route="99" depart="892" />
    <vehicle id="100_917" route="100" depart="917" />
    <vehicle id="101_920" route="101" depart="920" />
    <vehicle id="102_931" route="102" depart="931" />
    <vehicle id="103_932" route="103" depart="932" />
    <vehicle id="104_940" route="104" depart="940" />
    <vehicle id="105_942" route="105" depart="942" />
    <vehicle id="106_943" route="106" depart="943" />
    <vehicle id="107_946" route="107" depart="946" />
    <vehicle id="108_1007" route="108" depart="1007" />
    <vehicle id="109_1019" route="109" depart="1019" />
    <vehicle id="110_1021" route="110" depart="1021" />
    <vehicle id="111_1027" route="111" depart="1027" />
    <vehicle id="112_1028" route="112" depart="1028" />
    <vehicle id="113_1036" route="113" depart="1036" />
    <vehicle id="114_1037" route="114" depart="1037" />
    <vehicle id="115_1043" route="115" depart="1043" />
    <vehicle id="116_1047" route="116" depart="1047" />
    <vehicle id="117_1060" route="117" depart="1060" />
    <vehicle id="118_1064" route="118" depart="1064" />
    <vehicle id="119_1077" route="119" depart="1077" />
    <vehicle id="120_1078" route="120" depart="1078" />
    <vehicle id="121_1093" route="121" depart="1093" />
    <vehicle id="122_1102" route="122" depart="1102" />
    <vehicle id="123_1108" route="123" depart="1108" />
    <vehicle id="124_1116" route="124" depart="1116" />
    <vehicle id="125_1121" route="125" depart="1121" />
    <vehicle id="126_1132" route="126" depart="1132" />
    <vehicle id="127_1140" route="127" depart="1140" />
    <vehicle id="128_1150" route="128" depart="1150" />
    <vehicle id="129_1167" route="129" depart="1167" />
    <vehicle id="130_1169" route="130" depart="1169" />
    <vehicle id="131_1202" route="131" depart="1202" />
    <vehicle id="132_1208" route="132" depart="1208" />
    <vehicle id="133_1226" route="133" depart="1226" />
    <vehicle id="134_1258" route="134" depart="1258" />
    <vehicle id="135_1264" route="135" depart="1264" />
    <vehicle id="136_1269" route="136" depart="1269" />
    <vehicle id="137_1275" route="137" depart="1275" />
    <vehicle id="138_1277" route="138" depart="1277" />
    <vehicle id="139_1295" route="139" depart="1295" />
    <vehicle id="140_1296" route="140" depart="1296" />
    <vehicle id="141_1298" route="141" depart="1298" />
    <vehicle id="142_1315" route="142" depart="1315" />
    <vehicle id="143_1325" route="143" depart="1325" />
    <vehicle id="144_1346" route="144" depart="1346" />
    <vehicle id="145_1348" route="145" depart="1348" />
    <vehicle id="146_1352" route="146" depart="1352" />
    <vehicle id="147_1356" route="147" depart="1356" />
    <vehicle id="148_1367" route="148" depart="1367" />
    <vehicle id="149_1385" route="149" depart="1385" />
    <vehicle id="150_1387" route="150" depart="1387" />
    <vehicle id="151_1394" route="151" depart="1394" />
    <vehicle id="152_1403" route="152" depart="1403" />
    <vehicle id="153_1405" route="153" depart="1405" />
    <vehicle id="154_1415" route="154" depart="1415" />
    <vehicle id="155_1419" route="155" depart="1419" />
    <vehicle id="156_1426" route="156" depart="1426" />
    <vehicle id="157_1436" route="157" depart="1436" />
    <vehicle id="158_1438" route="158" depart="1438" />
    <vehicle id="159_1458" route="159" depart="1458" />
    <vehicle id="160_1462" route="160" depart="1462" />
    <vehicle id="161_1488" route="161" depart="1488" />
    <vehicle id="162_1491" route="162" depart="1491" />
    <vehicle id="163_1502" route="163" depart="1502" />
    <vehicle id="164_1534" route="164" depart="1534" />
    <vehicle id="165_1546" route="165" depart="1546" />
    <vehicle id="166_1549" route="166" depart="1549" />
    <vehicle id="167_1554" route="167" depart="1554" />
    <vehicle id="168_1558" route="168" depart="1558" />
    <vehicle id="169_1561" route="169" depart="1561" />
    <vehicle id="170_1562" route="170" depart="1562" />
    <vehicle id="171_1564" route="171" depart="1564" />
    <vehicle id="172_1573" route="172" depart="1573" />
    <vehicle id="173_1589" route="173" depart="1589" />
    <vehicle id="174_1603" route="174" depart="1603" />
    <vehicle id="175_1620" route="175" depart="1620" />
    <vehicle id="176_1622" route="176" depart="1622" />
    <vehicle id="177_1624" route="177" depart="1624" />
    <vehicle id="178_1631" route="178" depart="1631" />
    <vehicle id="179_1637" route="179" depart="1637" />
    <vehicle id="180_1639" route="180" depart="1639" />
    <vehicle id="181_1642" route="181" depart="1642" />
    <vehicle id="182_1645" route="182" depart="1645" />
    <vehicle id="183_1652" route="183" depart="1652" />
    <vehicle id="184_1653" route="184" depart="1653" />
    <vehicle id="185_1678" route="185" depart="1678" />
    <vehicle id="186_1699" route="186" depart="1699" />
    <vehicle id="187_1707" route="187" depart="1707" />
    <vehicle id="188_1718" route="188" depart="1718" />
    <vehicle id="189_1723" route="189" depart="1723" />
    <vehicle id="190_1736" route="190" depart="1736" />
    <vehicle id="191_1767" route="191" depart="1767" />
    <vehicle id="192_1793" route="192" depart="1793" />
    <vehicle id="193_1796" route="193" depart="1796" />
    <vehicle id="194_1835" route="194" depart="1835" />
    <vehicle id="195_1836" route="195" depart="1836" />
    <vehicle id="196_1839" route="196" depart="1839" />
    <vehicle id="197_1844" route="197" depart="1844" />
    <vehicle id="198_1852" route="198" depart="1852" />
    <vehicle id="199_1855" route="199" depart="1855" />
    <vehicle id="200_1883" route="200" depart="1883" />
    <vehicle id="201_1893" route="201" depart="1893" />
    <vehicle id="202_1901" route="202" depart="1901" />
    <vehicle id="203_1908" route="203" depart="1908" />
    <vehicle id="204_1909" route="204" depart="1909" />
    <vehicle id="205_1913" route="205" depart="1913" />
    <vehicle id="206_1916" route="206" depart="1916" />
    <vehicle id="207_1950" route="207" depart="1950" />
    <vehicle id="208_1962" route="208" depart="1962" />
    <vehicle id="209_1973" route="209" depart="1973" />
    <vehicle id="210_1976" route="210" depart="1976" />
    <vehicle id="211_1987" route="211" depart="1987" />
    <vehicle id="212_1993" route="212" depart="1993" />
    <vehicle id="213_2000" route="213" depart="2000" />
    <vehicle id="214_2022" route="214" depart="2022" />
    <vehicle id="215_2024" route="215" depart="2024" />
    <vehicle id="216_2037" route="216" depart="2037" />
    <vehicle id="217_2061" route="217" depart="2061" />
    <vehicle id="218_2071" route="218" depart="2071" />
    <vehicle id="219_2082" route="219" depart="2082" />
    <vehicle id="220_2084" route="220" depart="2084" />
    <vehicle id="221_2090" route="221" depart="2090" />
    <vehicle id="222_2101" route="222" depart="2101" />
    <vehicle id="223_2122" route="223" depart="2122" />
    <vehicle id="224_2129" route="224" depart="2129" />
    <vehicle id="225_2140" route="225" depart="2140" />
    <vehicle id="226_2143" route="226" depart="2143" />
    <vehicle id="227_2176" route="227" depart="2176" />
    <vehicle id="228_2180" route="228" depart="2180" />
    <vehicle id="229_2196" route="229" depart="2196" />
    <vehicle id="230_2200" route="230" depart="2200" />
    <vehicle id="231_2209" route="231" depart="2209" />
    <vehicle id="232_2225" route="232" depart="2225" />
    <vehicle id="233_2250" route="233" depart="2250" />
    <vehicle id="234_2252" route="234" depart="2252" />
    <vehicle id="235_2262" route="235" depart="2262" />
    <vehicle id="236_2271" route="236" depart="2271" />
    <vehicle id="237_2280" route="237" depart="2280" />
    <vehicle id="238_2286" route="238" depart="2286" />
    <vehicle id="239_2289" route="239" depart="2289" />
    <vehicle id="240_2290" route="240" depart="2290" />
    <vehicle id="241_2300" route="241" depart="2300" />
    <vehicle id="242_2304" route="242" depart="2304" />
    <vehicle id="243_2334" route="243" depart="2334" />
    <vehicle id="244_2356" route="244" depart="2356" />
    <vehicle id="245_2363" route="245" depart="2363" />
    <vehicle id="246_2373" route="246" depart="2373" />
    <vehicle id="247_2380" route="247" depart="2380" />
    <vehicle id="248_2383" route="248" depart="2383" />
    <vehicle id="249_2387" route="249" depart="2387" />
    <vehicle id="250_2412" route="250" depart="2412" />
    <vehicle id="251_2413" route="251" depart="2413" />
    <vehicle id="252_2435" route="252" depart="2435" />
    <vehicle id="253_2453" route="253" depart="2453" />
    <vehicle id="254_2455" route="254" depart="2455" />
    <vehicle id="255_2462" route="255" depart="2462" />
    <vehicle id="256_2463" route="256" depart="2463" />
    <vehicle id="257_2473" route="257" depart="2473" />
    <vehicle id="258_2474" route="258" depart="2474" />
    <vehicle id="259_2477" route="259" depart="2477" />
    <vehicle id="260_2496" route="260" depart="2496" />
    <vehicle id="261_2499" route="261" depart="2499" />
    <vehicle id="262_2531" route="262" depart="2531" />
    <vehicle id="263_2535" route="263" depart="2535" />
    <vehicle id="264_2536" route="264" depart="2536" />
    <vehicle id="265_2537" route="265" depart="2537" />
    <vehicle id="266_2549" route="266" depart="2549" />
    <vehicle id="267_2552" route="267" depart="2552" />
    <vehicle id="268_2556" route="268" depart="2556" />
    <vehicle id="269_2564" route="269" depart="2564" />
    <vehicle id="270_2581" route="270" depart="2581" />
    <vehicle id="271_2583" route="271" depart="2583" />
    <vehicle id="272_2592" route="272" depart="2592" />
    <vehicle id="273_2594" route="273" depart="2594" />
    <vehicle id="274_2600" route="274" depart="2600" />
    <vehicle id="275_2601" route="275" depart="2601" />
    <vehicle id="276_2602" route="276" depart="2602" />
    <vehicle id="277_2608" route="277" depart="2608" />
    <vehicle id="278_2618" route="278" depart="2618" />
    <vehicle id="279_2627" route="279" depart="2627" />
    <vehicle id="280_2629" route="280" depart="2629" />
    <vehicle id="281_2637" route="281" depart="2637" />
    <vehicle id="282_2659" route="282" depart="2659" />
    <vehicle id="283_2685" route="283" depart="2685" />
    <vehicle id="284_2699" route="284" depart="2699" />
    <vehicle id="285_2705" route="285" depart="2705" />
    <vehicle id="286_2733" route="286" depart="2733" />
    <vehicle id="287_2744" route="287" depart="2744" />
    <vehicle id="288_2746" route="288" depart="2746" />
    <vehicle id="289_2767" route="289" depart="2767" />
    <vehicle id="290_2773" route="290" depart="2773" />
    <vehicle id="291_2774" route="291" depart="2774" />
    <vehicle id="292_2775" route="292" depart="2775" />
    <vehicle id="293_2787" route="293" depart="2787" />
    <vehicle id="294_2795" route="294" depart="2795" />
    <vehicle id="295_2800" route="295" depart="2800" />
    <vehicle id="296_2809" route="296" depart="2809" />
    <vehicle id="297_2832" route="297" depart="2832" />
    <vehicle id="298_2847" route="298" depart="2847" />
    <vehicle id="299_2854" route="299" depart="2854" />