<routes>

    <route id="1" edges="2i 3o"/>
    <route id="2" edges="6i 7o"/>
    <route id="3" edges="7i 6o"/>
    <route id="4" edges="2i 3o"/>
    <route id="5" edges="2i 3o"/>
    <route id="6" edges="4i 1o 5o"/>
    <route id="7" edges="5i 1i 4o"/>
    <route id="8" edges="5i 1i 4o"/>
    <route id="9" edges="5i 1i 4o"/>
    <route id="10" edges="3i 2o"/>
    <route id="11" edges="6i 7o"/>
    <route id="12" edges="7i 6o"/>
    <route id="13" edges="3i 2o"/>
    <route id="14" edges="5i 1i 4o"/>
    <route id="15" edges="3i 2o"/>
    <route id="16" edges="5i 1i 4o"/>
    <route id="17" edges="7i 6o"/>
    <route id="18" edges="7i 6o"/>
    <route id="19" edges="7i 6o"/>
    <route id="20" edges="5i 1i 4o"/>
    <route id="21" edges="6i 7o"/>
    <route id="22" edges="3i 2o"/>
    <route id="23" edges="4i 1o 5o"/>
    <route id="24" edges="4i 1o 5o"/>
    <route id="25" edges="3i 2o"/>
    <route id="26" edges="7i 6o"/>
    <route id="27" edges="3i 2o"/>
    <route id="28" edges="4i 1o 5o"/>
    <route id="29" edges="7i 6o"/>
    <route id="30" edges="5i 1i 4o"/>
    <route id="31" edges="5i 1i 4o"/>
    <route id="32" edges="7i 6o"/>
    <route id="33" edges="7i 6o"/>
    <route id="34" edges="7i 6o"/>
    <route id="35" edges="6i 7o"/>
    <route id="36" edges="2i 3o"/>
    <route id="37" edges="7i 6o"/>
    <route id="38" edges="6i 7o"/>
    <route id="39" edges="6i 7o"/>
    <route id="40" edges="4i 1o 5o"/>
    <route id="41" edges="5i 1i 4o"/>
    <route id="42" edges="6i 7o"/>
    <route id="43" edges="6i 7o"/>
    <route id="44" edges="4i 1o 5o"/>
    <route id="45" edges="6i 7o"/>
    <route id="46" edges="5i 1i 4o"/>
    <route id="47" edges="4i 1o 5o"/>
    <route id="48" edges="6i 7o"/>
    <route id="49" edges="6i 7o"/>
    <route id="50" edges="5i 1i 4o"/>
    <route id="51" edges="6i 7o"/>
    <route id="52" edges="3i 2o"/>
    <route id="53" edges="3i 2o"/>
    <route id="54" edges="4i 1o 5o"/>
    <route id="55" edges="2i 3o"/>
    <route id="56" edges="2i 3o"/>
    <route id="57" edges="6i 7o"/>
    <route id="58" edges="2i 3o"/>
    <route id="59" edges="7i 6o"/>
    <route id="60" edges="5i 1i 4o"/>
    <route id="61" edges="6i 7o"/>
    <route id="62" edges="6i 7o"/>
    <route id="63" edges="3i 2o"/>
    <route id="64" edges="2i 3o"/>
    <route id="65" edges="6i 7o"/>
    <route id="66" edges="5i 1i 4o"/>
    <route id="67" edges="7i 6o"/>
    <route id="68" edges="4i 1o 5o"/>
    <route id="69" edges="2i 3o"/>
    <route id="70" edges="3i 2o"/>
    <route id="71" edges="3i 2o"/>
    <route id="72" edges="4i 1o 5o"/>
    <route id="73" edges="7i 6o"/>
    <route id="74" edges="6i 7o"/>
    <route id="75" edges="3i 2o"/>
    <route id="76" edges="5i 1i 4o"/>
    <route id="77" edges="4i 1o 5o"/>
    <route id="78" edges="4i 1o 5o"/>
    <route id="79" edges="7i 6o"/>
    <route id="80" edges="5i 1i 4o"/>
    <route id="81" edges="2i 3o"/>
    <route id="82" edges="3i 2o"/>
    <route id="83" edges="5i 1i 4o"/>
    <route id="84" edges="5i 1i 4o"/>
    <route id="85" edges="7i 6o"/>
    <route id="86" edges="7i 6o"/>
    <route id="87" edges="5i 1i 4o"/>
    <route id="88" edges="5i 1i 4o"/>
    <route id="89" edges="5i 1i 4o"/>
    <route id="90" edges="6i 7o"/>
    <route id="91" edges="3i 2o"/>
    <route id="92" edges="3i 2o"/>
    <route id="93" edges="4i 1o 5o"/>
    <route id="94" edges="2i 3o"/>
    <route id="95" edges="2i 3o"/>
    <route id="96" edges="2i 3o"/>
    <route id="97" edges="6i 7o"/>
    <route id="98" edges="3i 2o"/>
    <route id="99" edges="7i 6o"/>
    <route id="100" edges="5i 1i 4o"/>
    <route id="101" edges="2i 3o"/>
    <route id="102" edges="2i 3o"/>
    <route id="103" edges="5i 1i 4o"/>
    <route id="104" edges="4i 1o 5o"/>
    <route id="105" edges="3i 2o"/>
    <route id="106" edges="7i 6o"/>
    <route id="107" edges="3i 2o"/>
    <route id="108" edges="2i 3o"/>
    <route id="109" edges="7i 6o"/>
    <route id="110" edges="7i 6o"/>
    <route id="111" edges="3i 2o"/>
    <route id="112" edges="3i 2o"/>
    <route id="113" edges="7i 6o"/>
    <route id="114" edges="3i 2o"/>
    <route id="115" edges="4i 1o 5o"/>
    <route id="116" edges="2i 3o"/>
    <route id="117" edges="2i 3o"/>
    <route id="118" edges="4i 1o 5o"/>
    <route id="119" edges="5i 1i 4o"/>
    <route id="120" edges="3i 2o"/>
    <route id="121" edges="4i 1o 5o"/>
    <route id="122" edges="5i 1i 4o"/>
    <route id="123" edges="3i 2o"/>
    <route id="124" edges="7i 6o"/>
    <route id="125" edges="4i 1o 5o"/>
    <route id="126" edges="2i 3o"/>
    <route id="127" edges="2i 3o"/>
    <route id="128" edges="6i 7o"/>
    <route id="129" edges="5i 1i 4o"/>
    <route id="130" edges="2i 3o"/>
    <route id="131" edges="3i 2o"/>
    <route id="132" edges="7i 6o"/>
    <route id="133" edges="2i 3o"/>
    <route id="134" edges="6i 7o"/>
    <route id="135" edges="7i 6o"/>
    <route id="136" edges="2i 3o"/>
    <route id="137" edges="3i 2o"/>
    <route id="138" edges="3i 2o"/>
    <route id="139" edges="7i 6o"/>
    <route id="140" edges="5i 1i 4o"/>
    <route id="141" edges="6i 7o"/>
    <route id="142" edges="7i 6o"/>
    <route id="143" edges="2i 3o"/>
    <route id="144" edges="3i 2o"/>
    <route id="145" edges="2i 3o"/>
    <route id="146" edges="5i 1i 4o"/>
    <route id="147" edges="7i 6o"/>
    <route id="148" edges="6i 7o"/>
    <route id="149" edges="5i 1i 4o"/>
    <route id="150" edges="4i 1o 5o"/>
    <route id="151" edges="6i 7o"/>
    <route id="152" edges="4i 1o 5o"/>
    <route id="153" edges="3i 2o"/>
    <route id="154" edges="2i 3o"/>
    <route id="155" edges="4i 1o 5o"/>
    <route id="156" edges="6i 7o"/>
    <route id="157" edges="6i 7o"/>
    <route id="158" edges="6i 7o"/>
    <route id="159" edges="7i 6o"/>
    <route id="160" edges="4i 1o 5o"/>
    <route id="161" edges="2i 3o"/>
    <route id="162" edges="4i 1o 5o"/>
    <route id="163" edges="2i 3o"/>
    <route id="164" edges="3i 2o"/>
    <route id="165" edges="2i 3o"/>
    <route id="166" edges="5i 1i 4o"/>
    <route id="167" edges="5i 1i 4o"/>
    <route id="168" edges="3i 2o"/>
    <route id="169" edges="7i 6o"/>

    <vehicle id="1_7" route="1" depart="7" />
    <vehicle id="2_20" route="2" depart="20" />
    <vehicle id="3_25" route="3" depart="25" />
    <vehicle id="4_39" route="4" depart="39" />
    <vehicle id="5_61" route="5" depart="61" />
    <vehicle id="6_67" route="6" depart="67" />
    <vehicle id="7_76" route="7" depart="76" />
    <vehicle id="8_110" route="8" depart="110" />
    <vehicle id="9_114" route="9" depart="114" />
    <vehicle id="10_143" route="10" depart="143" />
    <vehicle id="11_148" route="11" depart="148" />
    <vehicle id="12_157" route="12" depart="157" />
    <vehicle id="13_172" route="13" depart="172" />
    <vehicle id="14_181" route="14" depart="181" />
    <vehicle id="15_213" route="15" depart="213" />
    <vehicle id="16_219" route="16" depart="219" />
    <vehicle id="17_236" route="17" depart="236" />
    <vehicle id="18_238" route="18" depart="238" />
    <vehicle id="19_253" route="19" depart="253" />
    <vehicle id="20_278" route="20" depart="278" />
    <vehicle id="21_288" route="21" depart="288" />
    <vehicle id="22_320" route="22" depart="320" />
    <vehicle id="23_337" route="23" depart="337" />
    <vehicle id="24_351" route="24" depart="351" />
    <vehicle id="25_355" route="25" depart="355" />
    <vehicle id="26_362" route="26" depart="362" />
    <vehicle id="27_416" route="27" depart="416" />
    <vehicle id="28_427" route="28" depart="427" />
    <vehicle id="29_433" route="29" depart="433" />
    <vehicle id="30_438" route="30" depart="438" />
    <vehicle id="31_458" route="31" depart="458" />
    <vehicle id="32_504" route="32" depart="504" />
    <vehicle id="33_508" route="33" depart="508" />
    <vehicle id="34_520" route="34" depart="520" />
    <vehicle id="35_521" route="35" depart="521" />
    <vehicle id="36_584" route="36" depart="584" />
    <vehicle id="37_608" route="37" depart="608" />
    <vehicle id="38_640" route="38" depart="640" />
    <vehicle id="39_656" route="39" depart="656" />
    <vehicle id="40_674" route="40" depart="674" />
    <vehicle id="41_719" route="41" depart="719" />
    <vehicle id="42_725" route="42" depart="725" />
    <vehicle id="43_745" route="43" depart="745" />
    <vehicle id="44_750" route="44" depart="750" />
    <vehicle id="45_793" route="45" depart="793" />
    <vehicle id="46_828" route="46" depart="828" />
    <vehicle id="47_841" route="47" depart="841" />
    <vehicle id="48_918" route="48" depart="918" />
    <vehicle id="49_934" route="49" depart="934" />
    <vehicle id="50_940" route="50" depart="940" />
    <vehicle id="51_967" route="51" depart="967" />
    <vehicle id="52_993" route="52" depart="993" />
    <vehicle id="53_998" route="53" depart="998" />
    <vehicle id="54_1025" route="54" depart="1025" />
    <vehicle id="55_1033" route="55" depart="1033" />
    <vehicle id="56_1048" route="56" depart="1048" />
    <vehicle id="57_1052" route="57" depart="1052" />
    <vehicle id="58_1055" route="58" depart="1055" />
    <vehicle id="59_1116" route="59" depart="1116" />
    <vehicle id="60_1144" route="60" depart="1144" />
    <vehicle id="61_1149" route="61" depart="1149" />
    <vehicle id="62_1153" route="62" depart="1153" />
    <vehicle id="63_1164" route="63" depart="1164" />
    <vehicle id="64_1169" route="64" depart="1169" />
    <vehicle id="65_1204" route="65" depart="1204" />
    <vehicle id="66_1208" route="66" depart="1208" />
    <vehicle id="67_1265" route="67" depart="1265" />
    <vehicle id="68_1302" route="68" depart="1302" />
    <vehicle id="69_1306" route="69" depart="1306" />
    <vehicle id="70_1313" route="70" depart="1313" />
    <vehicle id="71_1331" route="71" depart="1331" />
    <vehicle id="72_1337" route="72" depart="1337" />
    <vehicle id="73_1385" route="73" depart="1385" />
    <vehicle id="74_1493" route="74" depart="1493" />
    <vehicle id="75_1520" route="75" depart="1520" />
    <vehicle id="76_1530" route="76" depart="1530" />
    <vehicle id="77_1539" route="77" depart="1539" />
    <vehicle id="78_1546" route="78" depart="1546" />
    <vehicle id="79_1583" route="79" depart="1583" />
    <vehicle id="80_1601" route="80" depart="1601" />
    <vehicle id="81_1623" route="81" depart="1623" />
    <vehicle id="82_1628" route="82" depart="1628" />
    <vehicle id="83_1699" route="83" depart="1699" />
    <vehicle id="84_1721" route="84" depart="1721" />
    <vehicle id="85_1740" route="85" depart="1740" />
    <vehicle id="86_1750" route="86" depart="1750" />
    <vehicle id="87_1782" route="87" depart="1782" />
    <vehicle id="88_1793" route="88" depart="1793" />
    <vehicle id="89_1798" route="89" depart="1798" />
    <vehicle id="90_1822" route="90" depart="1822" />
    <vehicle id="91_1852" route="91" depart="1852" />
    <vehicle id="92_1907" route="92" depart="1907" />
    <vehicle id="93_1935" route="93" depart="1935" />
    <vehicle id="94_1945" route="94" depart="1945" />
    <vehicle id="95_1958" route="95" depart="1958" />
    <vehicle id="96_2002" route="96" depart="2002" />
    <vehicle id="97_2003" route="97" depart="2003" />
    <vehicle id="98_2015" route="98" depart="2015" />
    <vehicle id="99_2084" route="99" depart="2084" />
    <vehicle id="100_2100" route="100" depart="2100" />
    <vehicle id="101_2173" route="101" depart="2173" />
    <vehicle id="102_2183" route="102" depart="2183" />
    <vehicle id="103_2198" route="103" depart="2198" />
    <vehicle id="104_2243" route="104" depart="2243" />
    <vehicle id="105_2245" route="105" depart="2245" />
    <vehicle id="106_2248" route="106" depart="2248" />
    <vehicle id="107_2311" route="107" depart="2311" />
    <vehicle id="108_2340" route="108" depart="2340" />
    <vehicle id="109_2361" route="109" depart="2361" />
    <vehicle id="110_2408" route="110" depart="2408" />
    <vehicle id="111_2416" route="111" depart="2416" />
    <vehicle id="112_2417" route="112" depart="2417" />
    <vehicle id="113_2428" route="113" depart="2428" />
    <vehicle id="114_2446" route="114" depart="2446" />
    <vehicle id="115_2452" route="115" depart="2452" />
    <vehicle id="116_2479" route="116" depart="2479" />
    <vehicle id="117_2481" route="117" depart="2481" />
    <vehicle id="118_2494" route="118" depart="2494" />
    <vehicle id="119_2496" route="119" depart="2496" />
    <vehicle id="120_2506" route="120" depart="2506" />
    <vehicle id="121_2522" route="121" depart="2522" />
    <vehicle id="122_2560" route="122" depart="2560" />
    <vehicle id="123_2645" route="123" depart="2645" />
    <vehicle id="124_2701" route="124" depart="2701" />
    <vehicle id="125_2724" route="125" depart="2724" />
    <vehicle id="126_2756" route="126" depart="2756" />
    <vehicle id="127_2757" route="127" depart="2757" />
    <vehicle id="128_2761" route="128" depart="2761" />
    <vehicle id="129_2782" route="129" depart="2782" />
    <vehicle id="130_2794" route="130" depart="2794" />
    <vehicle id="131_2797" route="131" depart="2797" />
    <vehicle id="132_2813" route="132" depart="2813" />
    <vehicle id="133_2815" route="133" depart="2815" />
    <vehicle id="134_2837" route="134" depart="2837" />
    <vehicle id="135_2883" route="135" depart="2883" />
    <vehicle id="136_2884" route="136" depart="2884" />
    <vehicle id="137_2892" route="137" depart="2892" />
    <vehicle id="138_2893" route="138" depart="2893" />
    <vehicle id="139_2913" route="139" depart="2913" />
    <vehicle id="140_2933" route="140" depart="2933" />
    <vehicle id="141_2944" route="141" depart="2944" />
    <vehicle id="142_2957" route="142" depart="2957" />
    <vehicle id="143_2959" route="143" depart="2959" />
    <vehicle id="144_2963" route="144" depart="2963" />
    <vehicle id="145_2971" route="145" depart="2971" />
    <vehicle id="146_2998" route="146" depart="2998" />
    <vehicle id="147_3044" route="147" depart="3044" />
    <vehicle id="148_3052" route="148" depart="3052" />
    <vehicle id="149_3093" route="149" depart="3093" />
    <vehicle id="150_3099" route="150" depart="3099" />
    <vehicle id="151_3185" route="151" depart="3185" />
    <vehicle id="152_3193" route="152" depart="3193" />
    <vehicle id="153_3232" route="153" depart="3232" />
    <vehicle id="154_3242" route="154" depart="3242" />
    <vehicle id="155_3249" route="155" depart="3249" />
    <vehicle id="156_3252" route="156" depart="3252" />
    <vehicle id="157_3258" route="157" depart="3258" />
    <vehicle id="158_3284" route="158" depart="3284" />
    <vehicle id="159_3289" route="159" depart="3289" />
    <vehicle id="160_3397" route="160" depart="3397" />
    <vehicle id="161_3443" route="161" depart="3443" />
    <vehicle id="162_3466" route="162" depart="3466" />
    <vehicle id="163_3469" route="163" depart="3469" />
    <vehicle id="164_3473" route="164" depart="3473" />
    <vehicle id="165_3487" route="165" depart="3487" />
    <vehicle id="166_3546" route="166" depart="3546" />
    <vehicle id="167_3554" route="167" depart="3554" />
    <vehicle id="168_3556" route="168" depart="3556" />
    <vehicle id="169_3576" route="169" depart="3576" />

</routes>