<routes>

    <route id="1" edges="4i 1o 5o"/>
    <route id="2" edges="4i 1o 5o"/>
    <route id="3" edges="2i 3o"/>
    <route id="4" edges="2i 3o"/>
    <route id="5" edges="7i 6o"/>
    <route id="6" edges="5i 1i 4o"/>
    <route id="7" edges="6i 7o"/>
    <route id="8" edges="6i 7o"/>
    <route id="9" edges="2i 3o"/>
    <route id="10" edges="5i 1i 4o"/>
    <route id="11" edges="6i 7o"/>
    <route id="12" edges="2i 3o"/>
    <route id="13" edges="6i 7o"/>
    <route id="14" edges="2i 3o"/>
    <route id="15" edges="6i 7o"/>
    <route id="16" edges="7i 6o"/>
    <route id="17" edges="4i 1o 5o"/>
    <route id="18" edges="7i 6o"/>
    <route id="19" edges="2i 3o"/>
    <route id="20" edges="5i 1i 4o"/>
    <route id="21" edges="3i 2o"/>
    <route id="22" edges="6i 7o"/>
    <route id="23" edges="4i 1o 5o"/>
    <route id="24" edges="5i 1i 4o"/>
    <route id="25" edges="3i 2o"/>
    <route id="26" edges="6i 7o"/>
    <route id="27" edges="6i 7o"/>
    <route id="28" edges="6i 7o"/>
    <route id="29" edges="4i 1o 5o"/>
    <route id="30" edges="5i 1i 4o"/>
    <route id="31" edges="7i 6o"/>
    <route id="32" edges="5i 1i 4o"/>
    <route id="33" edges="3i 2o"/>
    <route id="34" edges="6i 7o"/>
    <route id="35" edges="4i 1o 5o"/>
    <route id="36" edges="3i 2o"/>
    <route id="37" edges="3i 2o"/>
    <route id="38" edges="2i 3o"/>
    <route id="39" edges="3i 2o"/>
    <route id="40" edges="2i 3o"/>
    <route id="41" edges="7i 6o"/>
    <route id="42" edges="2i 3o"/>
    <route id="43" edges="3i 2o"/>

    <vehicle id="1_92" route="1" depart="92" />
    <vehicle id="2_120" route="2" depart="120" />
    <vehicle id="3_228" route="3" depart="228" />
    <vehicle id="4_229" route="4" depart="229" />
    <vehicle id="5_266" route="5" depart="266" />
    <vehicle id="6_292" route="6" depart="292" />
    <vehicle id="7_436" route="7" depart="436" />
    <vehicle id="8_528" route="8" depart="528" />
    <vehicle id="9_744" route="9" depart="744" />
    <vehicle id="10_763" route="10" depart="763" />
    <vehicle id="11_930" route="11" depart="930" />
    <vehicle id="12_1055" route="12" depart="1055" />
    <vehicle id="13_1071" route="13" depart="1071" />
    <vehicle id="14_1085" route="14" depart="1085" />
    <vehicle id="15_1186" route="15" depart="1186" />
    <vehicle id="16_1299" route="16" depart="1299" />
    <vehicle id="17_1384" route="17" depart="1384" />
    <vehicle id="18_1615" route="18" depart="1615" />
    <vehicle id="19_1674" route="19" depart="1674" />
    <vehicle id="20_1969" route="20" depart="1969" />
    <vehicle id="21_2049" route="21" depart="2049" />
    <vehicle id="22_2267" route="22" depart="2267" />
    <vehicle id="23_2302" route="23" depart="2302" />
    <vehicle id="24_2393" route="24" depart="2393" />
    <vehicle id="25_2484" route="25" depart="2484" />
    <vehicle id="26_2557" route="26" depart="2557" />
    <vehicle id="27_2732" route="27" depart="2732" />
    <vehicle id="28_2746" route="28" depart="2746" />
    <vehicle id="29_2761" route="29" depart="2761" />
    <vehicle id="30_2791" route="30" depart="2791" />
    <vehicle id="31_2812" route="31" depart="2812" />
    <vehicle id="32_2934" route="32" depart="2934" />
    <vehicle id="33_2956" route="33" depart="2956" />
    <vehicle id="34_2962" route="34" depart="2962" />
    <vehicle id="35_3066" route="35" depart="3066" />
    <vehicle id="36_3190" route="36" depart="3190" />
    <vehicle id="37_3197" route="37" depart="3197" />
    <vehicle id="38_3208" route="38" depart="3208" />
    <vehicle id="39_3240" route="39" depart="3240" />
    <vehicle id="40_3282" route="40" depart="3282" />
    <vehicle id="41_3490" route="41" depart="3490" />
    <vehicle id="42_3499" route="42" depart="3499" />
    <vehicle id="43_3561" route="43" depart="3561" />

</routes>