<routes>

    <route id="1" edges="4i 1o 5o"/>
    <route id="2" edges="6i 7o"/>
    <route id="3" edges="3i 2o"/>
    <route id="4" edges="5i 1i 4o"/>
    <route id="5" edges="4i 1o 5o"/>
    <route id="6" edges="6i 7o"/>
    <route id="7" edges="4i 1o 5o"/>
    <route id="8" edges="2i 3o"/>
    <route id="9" edges="7i 6o"/>
    <route id="10" edges="3i 2o"/>
    <route id="11" edges="4i 1o 5o"/>
    <route id="12" edges="6i 7o"/>
    <route id="13" edges="3i 2o"/>
    <route id="14" edges="3i 2o"/>
    <route id="15" edges="5i 1i 4o"/>
    <route id="16" edges="6i 7o"/>
    <route id="17" edges="7i 6o"/>
    <route id="18" edges="6i 7o"/>
    <route id="19" edges="2i 3o"/>
    <route id="20" edges="3i 2o"/>
    <route id="21" edges="2i 3o"/>
    <route id="22" edges="6i 7o"/>
    <route id="23" edges="2i 3o"/>
    <route id="24" edges="5i 1i 4o"/>
    <route id="25" edges="4i 1o 5o"/>
    <route id="26" edges="6i 7o"/>
    <route id="27" edges="3i 2o"/>
    <route id="28" edges="4i 1o 5o"/>
    <route id="29" edges="7i 6o"/>
    <route id="30" edges="5i 1i 4o"/>
    <route id="31" edges="3i 2o"/>
    <route id="32" edges="2i 3o"/>
    <route id="33" edges="5i 1i 4o"/>
    <route id="34" edges="7i 6o"/>
    <route id="35" edges="6i 7o"/>
    <route id="36" edges="6i 7o"/>
    <route id="37" edges="3i 2o"/>
    <route id="38" edges="5i 1i 4o"/>
    <route id="39" edges="7i 6o"/>
    <route id="40" edges="6i 7o"/>
    <route id="41" edges="5i 1i 4o"/>
    <route id="42" edges="5i 1i 4o"/>
    <route id="43" edges="3i 2o"/>
    <route id="44" edges="5i 1i 4o"/>
    <route id="45" edges="6i 7o"/>
    <route id="46" edges="4i 1o 5o"/>
    <route id="47" edges="3i 2o"/>
    <route id="48" edges="5i 1i 4o"/>
    <route id="49" edges="3i 2o"/>
    <route id="50" edges="6i 7o"/>
    <route id="51" edges="6i 7o"/>
    <route id="52" edges="5i 1i 4o"/>
    <route id="53" edges="3i 2o"/>
    <route id="54" edges="7i 6o"/>
    <route id="55" edges="4i 1o 5o"/>
    <route id="56" edges="2i 3o"/>
    <route id="57" edges="4i 1o 5o"/>
    <route id="58" edges="4i 1o 5o"/>
    <route id="59" edges="3i 2o"/>
    <route id="60" edges="7i 6o"/>
    <route id="61" edges="5i 1i 4o"/>
    <route id="62" edges="2i 3o"/>
    <route id="63" edges="3i 2o"/>
    <route id="64" edges="2i 3o"/>
    <route id="65" edges="3i 2o"/>
    <route id="66" edges="4i 1o 5o"/>
    <route id="67" edges="7i 6o"/>
    <route id="68" edges="3i 2o"/>
    <route id="69" edges="6i 7o"/>
    <route id="70" edges="7i 6o"/>
    <route id="71" edges="7i 6o"/>
    <route id="72" edges="6i 7o"/>
    <route id="73" edges="4i 1o 5o"/>
    <route id="74" edges="2i 3o"/>
    <route id="75" edges="3i 2o"/>
    <route id="76" edges="3i 2o"/>
    <route id="77" edges="5i 1i 4o"/>
    <route id="78" edges="7i 6o"/>
    <route id="79" edges="5i 1i 4o"/>
    <route id="80" edges="6i 7o"/>
    <route id="81" edges="7i 6o"/>
    <route id="82" edges="4i 1o 5o"/>
    <route id="83" edges="5i 1i 4o"/>
    <route id="84" edges="5i 1i 4o"/>
    <route id="85" edges="6i 7o"/>
    <route id="86" edges="5i 1i 4o"/>
    <route id="87" edges="5i 1i 4o"/>
    <route id="88" edges="5i 1i 4o"/>
    <route id="89" edges="6i 7o"/>
    <route id="90" edges="3i 2o"/>
    <route id="91" edges="7i 6o"/>
    <route id="92" edges="3i 2o"/>
    <route id="93" edges="6i 7o"/>
    <route id="94" edges="4i 1o 5o"/>
    <route id="95" edges="4i 1o 5o"/>
    <route id="96" edges="2i 3o"/>
    <route id="97" edges="3i 2o"/>
    <route id="98" edges="6i 7o"/>
    <route id="99" edges="7i 6o"/>
    <route id="100" edges="2i 3o"/>
    <route id="101" edges="7i 6o"/>
    <route id="102" edges="3i 2o"/>
    <route id="103" edges="3i 2o"/>
    <route id="104" edges="6i 7o"/>
    <route id="105" edges="6i 7o"/>
    <route id="106" edges="6i 7o"/>
    <route id="107" edges="4i 1o 5o"/>
    <route id="108" edges="6i 7o"/>
    <route id="109" edges="2i 3o"/>
    <route id="110" edges="5i 1i 4o"/>
    <route id="111" edges="3i 2o"/>
    <route id="112" edges="5i 1i 4o"/>
    <route id="113" edges="3i 2o"/>
    <route id="114" edges="3i 2o"/>
    <route id="115" edges="5i 1i 4o"/>
    <route id="116" edges="7i 6o"/>
    <route id="117" edges="4i 1o 5o"/>
    <route id="118" edges="4i 1o 5o"/>
    <route id="119" edges="3i 2o"/>
    <route id="120" edges="2i 3o"/>
    <route id="121" edges="5i 1i 4o"/>
    <route id="122" edges="7i 6o"/>
    <route id="123" edges="3i 2o"/>
    <route id="124" edges="7i 6o"/>
    <route id="125" edges="3i 2o"/>
    <route id="126" edges="2i 3o"/>
    <route id="127" edges="2i 3o"/>
    <route id="128" edges="7i 6o"/>
    <route id="129" edges="5i 1i 4o"/>
    <route id="130" edges="2i 3o"/>
    <route id="131" edges="3i 2o"/>
    <route id="132" edges="2i 3o"/>
    <route id="133" edges="5i 1i 4o"/>
    <route id="134" edges="6i 7o"/>
    <route id="135" edges="3i 2o"/>
    <route id="136" edges="6i 7o"/>
    <route id="137" edges="3i 2o"/>
    <route id="138" edges="6i 7o"/>
    <route id="139" edges="7i 6o"/>
    <route id="140" edges="7i 6o"/>
    <route id="141" edges="4i 1o 5o"/>
    <route id="142" edges="3i 2o"/>
    <route id="143" edges="2i 3o"/>
    <route id="144" edges="5i 1i 4o"/>
    <route id="145" edges="7i 6o"/>
    <route id="146" edges="3i 2o"/>
    <route id="147" edges="5i 1i 4o"/>
    <route id="148" edges="3i 2o"/>
    <route id="149" edges="4i 1o 5o"/>
    <route id="150" edges="4i 1o 5o"/>
    <route id="151" edges="2i 3o"/>
    <route id="152" edges="5i 1i 4o"/>
    <route id="153" edges="4i 1o 5o"/>
    <route id="154" edges="3i 2o"/>
    <route id="155" edges="2i 3o"/>
    <route id="156" edges="3i 2o"/>
    <route id="157" edges="4i 1o 5o"/>
    <route id="158" edges="2i 3o"/>
    <route id="159" edges="6i 7o"/>
    <route id="160" edges="7i 6o"/>
    <route id="161" edges="6i 7o"/>
    <route id="162" edges="4i 1o 5o"/>
    <route id="163" edges="2i 3o"/>
    <route id="164" edges="7i 6o"/>
    <route id="165" edges="7i 6o"/>
    <route id="166" edges="2i 3o"/>
    <route id="167" edges="4i 1o 5o"/>
    <route id="168" edges="2i 3o"/>
    <route id="169" edges="3i 2o"/>
    <route id="170" edges="6i 7o"/>
    <route id="171" edges="7i 6o"/>
    <route id="172" edges="5i 1i 4o"/>
    <route id="173" edges="7i 6o"/>
    <route id="174" edges="6i 7o"/>
    <route id="175" edges="3i 2o"/>
    <route id="176" edges="2i 3o"/>
    <route id="177" edges="2i 3o"/>
    <route id="178" edges="6i 7o"/>
    <route id="179" edges="3i 2o"/>
    <route id="180" edges="6i 7o"/>
    <route id="181" edges="4i 1o 5o"/>
    <route id="182" edges="5i 1i 4o"/>
    <route id="183" edges="4i 1o 5o"/>
    <route id="184" edges="4i 1o 5o"/>
    <route id="185" edges="6i 7o"/>
    <route id="186" edges="2i 3o"/>
    <route id="187" edges="3i 2o"/>
    <route id="188" edges="6i 7o"/>
    <route id="189" edges="3i 2o"/>
    <route id="190" edges="2i 3o"/>
    <route id="191" edges="7i 6o"/>
    <route id="192" edges="2i 3o"/>
    <route id="193" edges="6i 7o"/>
    <route id="194" edges="6i 7o"/>
    <route id="195" edges="4i 1o 5o"/>
    <route id="196" edges="4i 1o 5o"/>
    <route id="197" edges="3i 2o"/>
    <route id="198" edges="2i 3o"/>
    <route id="199" edges="6i 7o"/>
    <route id="200" edges="4i 1o 5o"/>
    <route id="201" edges="4i 1o 5o"/>
    <route id="202" edges="7i 6o"/>
    <route id="203" edges="6i 7o"/>
    <route id="204" edges="3i 2o"/>
    <route id="205" edges="5i 1i 4o"/>
    <route id="206" edges="4i 1o 5o"/>
    <route id="207" edges="7i 6o"/>
    <route id="208" edges="4i 1o 5o"/>
    <route id="209" edges="4i 1o 5o"/>
    <route id="210" edges="6i 7o"/>
    <route id="211" edges="6i 7o"/>
    <route id="212" edges="5i 1i 4o"/>
    <route id="213" edges="7i 6o"/>
    <route id="214" edges="6i 7o"/>
    <route id="215" edges="3i 2o"/>
    <route id="216" edges="4i 1o 5o"/>
    <route id="217" edges="7i 6o"/>
    <route id="218" edges="4i 1o 5o"/>
    <route id="219" edges="6i 7o"/>
    <route id="220" edges="3i 2o"/>
    <route id="221" edges="2i 3o"/>
    <route id="222" edges="2i 3o"/>
    <route id="223" edges="2i 3o"/>
    <route id="224" edges="5i 1i 4o"/>
    <route id="225" edges="3i 2o"/>
    <route id="226" edges="6i 7o"/>
    <route id="227" edges="4i 1o 5o"/>
    <route id="228" edges="6i 7o"/>
    <route id="229" edges="7i 6o"/>
    <route id="230" edges="3i 2o"/>
    <route id="231" edges="2i 3o"/>
    <route id="232" edges="4i 1o 5o"/>
    <route id="233" edges="7i 6o"/>
    <route id="234" edges="3i 2o"/>
    <route id="235" edges="5i 1i 4o"/>
    <route id="236" edges="7i 6o"/>
    <route id="237" edges="4i 1o 5o"/>
    <route id="238" edges="4i 1o 5o"/>
    <route id="239" edges="7i 6o"/>
    <route id="240" edges="4i 1o 5o"/>
    <route id="241" edges="2i 3o"/>
    <route id="242" edges="4i 1o 5o"/>
    <route id="243" edges="5i 1i 4o"/>
    <route id="244" edges="6i 7o"/>
    <route id="245" edges="2i 3o"/>
    <route id="246" edges="7i 6o"/>
    <route id="247" edges="6i 7o"/>
    <route id="248" edges="6i 7o"/>
    <route id="249" edges="4i 1o 5o"/>
    <route id="250" edges="3i 2o"/>
    <route id="251" edges="6i 7o"/>
    <route id="252" edges="7i 6o"/>
    <route id="253" edges="2i 3o"/>
    <route id="254" edges="4i 1o 5o"/>
    <route id="255" edges="2i 3o"/>
    <route id="256" edges="3i 2o"/>
    <route id="257" edges="3i 2o"/>
    <route id="258" edges="6i 7o"/>
    <route id="259" edges="7i 6o"/>
    <route id="260" edges="6i 7o"/>
    <route id="261" edges="2i 3o"/>
    <route id="262" edges="3i 2o"/>
    <route id="263" edges="6i 7o"/>
    <route id="264" edges="5i 1i 4o"/>
    <route id="265" edges="3i 2o"/>
    <route id="266" edges="5i 1i 4o"/>
    <route id="267" edges="3i 2o"/>
    <route id="268" edges="6i 7o"/>
    <route id="269" edges="7i 6o"/>
    <route id="270" edges="3i 2o"/>
    <route id="271" edges="2i 3o"/>
    <route id="272" edges="2i 3o"/>
    <route id="273" edges="3i 2o"/>
    <route id="274" edges="5i 1i 4o"/>
    <route id="275" edges="2i 3o"/>
    <route id="276" edges="5i 1i 4o"/>
    <route id="277" edges="2i 3o"/>
    <route id="278" edges="7i 6o"/>
    <route id="279" edges="6i 7o"/>
    <route id="280" edges="4i 1o 5o"/>
    <route id="281" edges="3i 2o"/>
    <route id="282" edges="2i 3o"/>
    <route id="283" edges="3i 2o"/>
    <route id="284" edges="6i 7o"/>
    <route id="285" edges="4i 1o 5o"/>
    <route id="286" edges="3i 2o"/>
    <route id="287" edges="2i 3o"/>
    <route id="288" edges="3i 2o"/>
    <route id="289" edges="2i 3o"/>
    <route id="290" edges="2i 3o"/>
    <route id="291" edges="7i 6o"/>
    <route id="292" edges="4i 1o 5o"/>
    <route id="293" edges="6i 7o"/>
    <route id="294" edges="6i 7o"/>
    <route id="295" edges="3i 2o"/>
    <route id="296" edges="7i 6o"/>
    <route id="297" edges="4i 1o 5o"/>
    <route id="298" edges="6i 7o"/>
    <route id="299" edges="5i 1i 4o"/>
    <route id="300" edges="5i 1i 4o"/>
    <route id="301" edges="7i 6o"/>
    <route id="302" edges="2i 3o"/>
    <route id="303" edges="4i 1o 5o"/>
    <route id="304" edges="5i 1i 4o"/>
    <route id="305" edges="5i 1i 4o"/>
    <route id="306" edges="3i 2o"/>
    <route id="307" edges="2i 3o"/>
    <route id="308" edges="6i 7o"/>
    <route id="309" edges="6i 7o"/>
    <route id="310" edges="3i 2o"/>
    <route id="311" edges="6i 7o"/>
    <route id="312" edges="4i 1o 5o"/>
    <route id="313" edges="7i 6o"/>
    <route id="314" edges="2i 3o"/>
    <route id="315" edges="3i 2o"/>
    <route id="316" edges="5i 1i 4o"/>
    <route id="317" edges="3i 2o"/>
    <route id="318" edges="2i 3o"/>
    <route id="319" edges="3i 2o"/>
    <route id="320" edges="7i 6o"/>
    <route id="321" edges="6i 7o"/>
    <route id="322" edges="3i 2o"/>
    <route id="323" edges="2i 3o"/>
    <route id="324" edges="3i 2o"/>
    <route id="325" edges="3i 2o"/>
    <route id="326" edges="4i 1o 5o"/>
    <route id="327" edges="3i 2o"/>
    <route id="328" edges="3i 2o"/>
    <route id="329" edges="2i 3o"/>
    <route id="330" edges="6i 7o"/>
    <route id="331" edges="2i 3o"/>
    <route id="332" edges="2i 3o"/>
    <route id="333" edges="6i 7o"/>
    <route id="334" edges="7i 6o"/>
    <route id="335" edges="6i 7o"/>
    <route id="336" edges="6i 7o"/>
    <route id="337" edges="4i 1o 5o"/>
    <route id="338" edges="7i 6o"/>
    <route id="339" edges="4i 1o 5o"/>
    <route id="340" edges="4i 1o 5o"/>
    <route id="341" edges="4i 1o 5o"/>
    <route id="342" edges="6i 7o"/>
    <route id="343" edges="7i 6o"/>
    <route id="344" edges="7i 6o"/>
    <route id="345" edges="3i 2o"/>
    <route id="346" edges="7i 6o"/>
    <route id="347" edges="3i 2o"/>
    <route id="348" edges="4i 1o 5o"/>
    <route id="349" edges="5i 1i 4o"/>
    <route id="350" edges="6i 7o"/>
    <route id="351" edges="7i 6o"/>
    <route id="352" edges="4i 1o 5o"/>
    <route id="353" edges="5i 1i 4o"/>
    <route id="354" edges="5i 1i 4o"/>
    <route id="355" edges="5i 1i 4o"/>
    <route id="356" edges="6i 7o"/>
    <route id="357" edges="2i 3o"/>
    <route id="358" edges="2i 3o"/>
    <route id="359" edges="7i 6o"/>
    <route id="360" edges="7i 6o"/>
    <route id="361" edges="2i 3o"/>
    <route id="362" edges="6i 7o"/>
    <route id="363" edges="2i 3o"/>
    <route id="364" edges="3i 2o"/>
    <route id="365" edges="5i 1i 4o"/>
    <route id="366" edges="5i 1i 4o"/>
    <route id="367" edges="3i 2o"/>
    <route id="368" edges="2i 3o"/>
    <route id="369" edges="2i 3o"/>
    <route id="370" edges="7i 6o"/>
    <route id="371" edges="6i 7o"/>
    <route id="372" edges="4i 1o 5o"/>
    <route id="373" edges="2i 3o"/>
    <route id="374" edges="5i 1i 4o"/>
    <route id="375" edges="6i 7o"/>
    <route id="376" edges="7i 6o"/>

    <vehicle id="1_3" route="1" depart="3" />
    <vehicle id="2_6" route="2" depart="6" />
    <vehicle id="3_13" route="3" depart="13" />
    <vehicle id="4_17" route="4" depart="17" />
    <vehicle id="5_24" route="5" depart="24" />
    <vehicle id="6_35" route="6" depart="35" />
    <vehicle id="7_59" route="7" depart="59" />
    <vehicle id="8_61" route="8" depart="61" />
    <vehicle id="9_65" route="9" depart="65" />
    <vehicle id="10_66" route="10" depart="66" />
    <vehicle id="11_68" route="11" depart="68" />
    <vehicle id="12_69" route="12" depart="69" />
    <vehicle id="13_86" route="13" depart="86" />
    <vehicle id="14_95" route="14" depart="95" />
    <vehicle id="15_98" route="15" depart="98" />
    <vehicle id="16_104" route="16" depart="104" />
    <vehicle id="17_113" route="17" depart="113" />
    <vehicle id="18_119" route="18" depart="119" />
    <vehicle id="19_120" route="19" depart="120" />
    <vehicle id="20_127" route="20" depart="127" />
    <vehicle id="21_137" route="21" depart="137" />
    <vehicle id="22_177" route="22" depart="177" />
    <vehicle id="23_190" route="23" depart="190" />
    <vehicle id="24_193" route="24" depart="193" />
    <vehicle id="25_203" route="25" depart="203" />
    <vehicle id="26_208" route="26" depart="208" />
    <vehicle id="27_216" route="27" depart="216" />
    <vehicle id="28_222" route="28" depart="222" />
    <vehicle id="29_231" route="29" depart="231" />
    <vehicle id="30_234" route="30" depart="234" />
    <vehicle id="31_238" route="31" depart="238" />
    <vehicle id="32_271" route="32" depart="271" />
    <vehicle id="33_286" route="33" depart="286" />
    <vehicle id="34_298" route="34" depart="298" />
    <vehicle id="35_316" route="35" depart="316" />
    <vehicle id="36_321" route="36" depart="321" />
    <vehicle id="37_331" route="37" depart="331" />
    <vehicle id="38_345" route="38" depart="345" />
    <vehicle id="39_347" route="39" depart="347" />
    <vehicle id="40_351" route="40" depart="351" />
    <vehicle id="41_389" route="41" depart="389" />
    <vehicle id="42_394" route="42" depart="394" />
    <vehicle id="43_419" route="43" depart="419" />
    <vehicle id="44_424" route="44" depart="424" />
    <vehicle id="45_436" route="45" depart="436" />
    <vehicle id="46_439" route="46" depart="439" />
    <vehicle id="47_445" route="47" depart="445" />
    <vehicle id="48_447" route="48" depart="447" />
    <vehicle id="49_450" route="49" depart="450" />
    <vehicle id="50_454" route="50" depart="454" />
    <vehicle id="51_456" route="51" depart="456" />
    <vehicle id="52_458" route="52" depart="458" />
    <vehicle id="53_471" route="53" depart="471" />
    <vehicle id="54_487" route="54" depart="487" />
    <vehicle id="55_493" route="55" depart="493" />
    <vehicle id="56_498" route="56" depart="498" />
    <vehicle id="57_502" route="57" depart="502" />
    <vehicle id="58_507" route="58" depart="507" />
    <vehicle id="59_535" route="59" depart="535" />
    <vehicle id="60_536" route="60" depart="536" />
    <vehicle id="61_544" route="61" depart="544" />
    <vehicle id="62_561" route="62" depart="561" />
    <vehicle id="63_562" route="63" depart="562" />
    <vehicle id="64_586" route="64" depart="586" />
    <vehicle id="65_588" route="65" depart="588" />
    <vehicle id="66_593" route="66" depart="593" />
    <vehicle id="67_612" route="67" depart="612" />
    <vehicle id="68_625" route="68" depart="625" />
    <vehicle id="69_630" route="69" depart="630" />
    <vehicle id="70_645" route="70" depart="645" />
    <vehicle id="71_650" route="71" depart="650" />
    <vehicle id="72_651" route="72" depart="651" />
    <vehicle id="73_677" route="73" depart="677" />
    <vehicle id="74_694" route="74" depart="694" />
    <vehicle id="75_721" route="75" depart="721" />
    <vehicle id="76_741" route="76" depart="741" />
    <vehicle id="77_744" route="77" depart="744" />
    <vehicle id="78_745" route="78" depart="745" />
    <vehicle id="79_757" route="79" depart="757" />
    <vehicle id="80_758" route="80" depart="758" />
    <vehicle id="81_760" route="81" depart="760" />
    <vehicle id="82_763" route="82" depart="763" />
    <vehicle id="83_798" route="83" depart="798" />
    <vehicle id="84_799" route="84" depart="799" />
    <vehicle id="85_803" route="85" depart="803" />
    <vehicle id="86_827" route="86" depart="827" />
    <vehicle id="87_839" route="87" depart="839" />
    <vehicle id="88_844" route="88" depart="844" />
    <vehicle id="89_856" route="89" depart="856" />
    <vehicle id="90_871" route="90" depart="871" />
    <vehicle id="91_897" route="91" depart="897" />
    <vehicle id="92_901" route="92" depart="901" />
    <vehicle id="93_904" route="93" depart="904" />
    <vehicle id="94_915" route="94" depart="915" />
    <vehicle id="95_930" route="95" depart="930" />
    <vehicle id="96_938" route="96" depart="938" />
    <vehicle id="97_948" route="97" depart="948" />
    <vehicle id="98_954" route="98" depart="954" />
    <vehicle id="99_957" route="99" depart="957" />
    <vehicle id="100_961" route="100" depart="961" />
    <vehicle id="101_967" route="101" depart="967" />
    <vehicle id="102_972" route="102" depart="972" />
    <vehicle id="103_992" route="103" depart="992" />
    <vehicle id="104_1021" route="104" depart="1021" />
    <vehicle id="105_1039" route="105" depart="1039" />
    <vehicle id="106_1049" route="106" depart="1049" />
    <vehicle id="107_1059" route="107" depart="1059" />
    <vehicle id="108_1061" route="108" depart="1061" />
    <vehicle id="109_1080" route="109" depart="1080" />
    <vehicle id="110_1094" route="110" depart="1094" />
    <vehicle id="111_1098" route="111" depart="1098" />
    <vehicle id="112_1117" route="112" depart="1117" />
    <vehicle id="113_1134" route="113" depart="1134" />
    <vehicle id="114_1140" route="114" depart="1140" />
    <vehicle id="115_1172" route="115" depart="1172" />
    <vehicle id="116_1181" route="116" depart="1181" />
    <vehicle id="117_1189" route="117" depart="1189" />
    <vehicle id="118_1190" route="118" depart="1190" />
    <vehicle id="119_1202" route="119" depart="1202" />
    <vehicle id="120_1215" route="120" depart="1215" />
    <vehicle id="121_1237" route="121" depart="1237" />
    <vehicle id="122_1251" route="122" depart="1251" />
    <vehicle id="123_1252" route="123" depart="1252" />
    <vehicle id="124_1288" route="124" depart="1288" />
    <vehicle id="125_1289" route="125" depart="1289" />
    <vehicle id="126_1308" route="126" depart="1308" />
    <vehicle id="127_1312" route="127" depart="1312" />
    <vehicle id="128_1316" route="128" depart="1316" />
    <vehicle id="129_1319" route="129" depart="1319" />
    <vehicle id="130_1320" route="130" depart="1320" />
    <vehicle id="131_1331" route="131" depart="1331" />
    <vehicle id="132_1341" route="132" depart="1341" />
    <vehicle id="133_1343" route="133" depart="1343" />
    <vehicle id="134_1361" route="134" depart="1361" />
    <vehicle id="135_1381" route="135" depart="1381" />
    <vehicle id="136_1395" route="136" depart="1395" />
    <vehicle id="137_1417" route="137" depart="1417" />
    <vehicle id="138_1429" route="138" depart="1429" />
    <vehicle id="139_1440" route="139" depart="1440" />
    <vehicle id="140_1464" route="140" depart="1464" />
    <vehicle id="141_1467" route="141" depart="1467" />
    <vehicle id="142_1477" route="142" depart="1477" />
    <vehicle id="143_1487" route="143" depart="1487" />
    <vehicle id="144_1498" route="144" depart="1498" />
    <vehicle id="145_1506" route="145" depart="1506" />
    <vehicle id="146_1511" route="146" depart="1511" />
    <vehicle id="147_1534" route="147" depart="1534" />
    <vehicle id="148_1537" route="148" depart="1537" />
    <vehicle id="149_1539" route="149" depart="1539" />
    <vehicle id="150_1541" route="150" depart="1541" />
    <vehicle id="151_1542" route="151" depart="1542" />
    <vehicle id="152_1544" route="152" depart="1544" />
    <vehicle id="153_1553" route="153" depart="1553" />
    <vehicle id="154_1560" route="154" depart="1560" />
    <vehicle id="155_1563" route="155" depart="1563" />
    <vehicle id="156_1570" route="156" depart="1570" />
    <vehicle id="157_1573" route="157" depart="1573" />
    <vehicle id="158_1576" route="158" depart="1576" />
    <vehicle id="159_1588" route="159" depart="1588" />
    <vehicle id="160_1620" route="160" depart="1620" />
    <vehicle id="161_1628" route="161" depart="1628" />
    <vehicle id="162_1635" route="162" depart="1635" />
    <vehicle id="163_1640" route="163" depart="1640" />
    <vehicle id="164_1654" route="164" depart="1654" />
    <vehicle id="165_1663" route="165" depart="1663" />
    <vehicle id="166_1671" route="166" depart="1671" />
    <vehicle id="167_1678" route="167" depart="1678" />
    <vehicle id="168_1683" route="168" depart="1683" />
    <vehicle id="169_1694" route="169" depart="1694" />
    <vehicle id="170_1700" route="170" depart="1700" />
    <vehicle id="171_1704" route="171" depart="1704" />
    <vehicle id="172_1708" route="172" depart="1708" />
    <vehicle id="173_1719" route="173" depart="1719" />
    <vehicle id="174_1723" route="174" depart="1723" />
    <vehicle id="175_1728" route="175" depart="1728" />
    <vehicle id="176_1746" route="176" depart="1746" />
    <vehicle id="177_1755" route="177" depart="1755" />
    <vehicle id="178_1765" route="178" depart="1765" />
    <vehicle id="179_1787" route="179" depart="1787" />
    <vehicle id="180_1796" route="180" depart="1796" />
    <vehicle id="181_1801" route="181" depart="1801" />
    <vehicle id="182_1804" route="182" depart="1804" />
    <vehicle id="183_1817" route="183" depart="1817" />
    <vehicle id="184_1824" route="184" depart="1824" />
    <vehicle id="185_1834" route="185" depart="1834" />
    <vehicle id="186_1844" route="186" depart="1844" />
    <vehicle id="187_1866" route="187" depart="1866" />
    <vehicle id="188_1870" route="188" depart="1870" />
    <vehicle id="189_1896" route="189" depart="1896" />
    <vehicle id="190_1905" route="190" depart="1905" />
    <vehicle id="191_1910" route="191" depart="1910" />
    <vehicle id="192_1929" route="192" depart="1929" />
    <vehicle id="193_1938" route="193" depart="1938" />
    <vehicle id="194_1947" route="194" depart="1947" />
    <vehicle id="195_1961" route="195" depart="1961" />
    <vehicle id="196_1965" route="196" depart="1965" />
    <vehicle id="197_1972" route="197" depart="1972" />
    <vehicle id="198_1974" route="198" depart="1974" />
    <vehicle id="199_1982" route="199" depart="1982" />
    <vehicle id="200_1985" route="200" depart="1985" />
    <vehicle id="201_1996" route="201" depart="1996" />
    <vehicle id="202_2017" route="202" depart="2017" />
    <vehicle id="203_2021" route="203" depart="2021" />
    <vehicle id="204_2055" route="204" depart="2055" />
    <vehicle id="205_2060" route="205" depart="2060" />
    <vehicle id="206_2069" route="206" depart="2069" />
    <vehicle id="207_2077" route="207" depart="2077" />
    <vehicle id="208_2078" route="208" depart="2078" />
    <vehicle id="209_2080" route="209" depart="2080" />
    <vehicle id="210_2081" route="210" depart="2081" />
    <vehicle id="211_2085" route="211" depart="2085" />
    <vehicle id="212_2087" route="212" depart="2087" />
    <vehicle id="213_2091" route="213" depart="2091" />
    <vehicle id="214_2096" route="214" depart="2096" />
    <vehicle id="215_2117" route="215" depart="2117" />
    <vehicle id="216_2127" route="216" depart="2127" />
    <vehicle id="217_2133" route="217" depart="2133" />
    <vehicle id="218_2139" route="218" depart="2139" />
    <vehicle id="219_2141" route="219" depart="2141" />
    <vehicle id="220_2171" route="220" depart="2171" />
    <vehicle id="221_2183" route="221" depart="2183" />
    <vehicle id="222_2185" route="222" depart="2185" />
    <vehicle id="223_2190" route="223" depart="2190" />
    <vehicle id="224_2193" route="224" depart="2193" />
    <vehicle id="225_2196" route="225" depart="2196" />
    <vehicle id="226_2206" route="226" depart="2206" />
    <vehicle id="227_2230" route="227" depart="2230" />
    <vehicle id="228_2255" route="228" depart="2255" />
    <vehicle id="229_2256" route="229" depart="2256" />
    <vehicle id="230_2258" route="230" depart="2258" />
    <vehicle id="231_2266" route="231" depart="2266" />
    <vehicle id="232_2272" route="232" depart="2272" />
    <vehicle id="233_2304" route="233" depart="2304" />
    <vehicle id="234_2305" route="234" depart="2305" />
    <vehicle id="235_2313" route="235" depart="2313" />
    <vehicle id="236_2321" route="236" depart="2321" />
    <vehicle id="237_2325" route="237" depart="2325" />
    <vehicle id="238_2335" route="238" depart="2335" />
    <vehicle id="239_2337" route="239" depart="2337" />
    <vehicle id="240_2357" route="240" depart="2357" />
    <vehicle id="241_2361" route="241" depart="2361" />
    <vehicle id="242_2366" route="242" depart="2366" />
    <vehicle id="243_2367" route="243" depart="2367" />
    <vehicle id="244_2371" route="244" depart="2371" />
    <vehicle id="245_2380" route="245" depart="2380" />
    <vehicle id="246_2381" route="246" depart="2381" />
    <vehicle id="247_2399" route="247" depart="2399" />
    <vehicle id="248_2414" route="248" depart="2414" />
    <vehicle id="249_2424" route="249" depart="2424" />
    <vehicle id="250_2426" route="250" depart="2426" />
    <vehicle id="251_2434" route="251" depart="2434" />
    <vehicle id="252_2441" route="252" depart="2441" />
    <vehicle id="253_2442" route="253" depart="2442" />
    <vehicle id="254_2448" route="254" depart="2448" />
    <vehicle id="255_2476" route="255" depart="2476" />
    <vehicle id="256_2477" route="256" depart="2477" />
    <vehicle id="257_2485" route="257" depart="2485" />
    <vehicle id="258_2487" route="258" depart="2487" />
    <vehicle id="259_2488" route="259" depart="2488" />
    <vehicle id="260_2499" route="260" depart="2499" />
    <vehicle id="261_2509" route="261" depart="2509" />
    <vehicle id="262_2510" route="262" depart="2510" />
    <vehicle id="263_2538" route="263" depart="2538" />
    <vehicle id="264_2542" route="264" depart="2542" />
    <vehicle id="265_2568" route="265" depart="2568" />
    <vehicle id="266_2576" route="266" depart="2576" />
    <vehicle id="267_2587" route="267" depart="2587" />
    <vehicle id="268_2589" route="268" depart="2589" />
    <vehicle id="269_2590" route="269" depart="2590" />
    <vehicle id="270_2614" route="270" depart="2614" />
    <vehicle id="271_2616" route="271" depart="2616" />
    <vehicle id="272_2621" route="272" depart="2621" />
    <vehicle id="273_2633" route="273" depart="2633" />
    <vehicle id="274_2646" route="274" depart="2646" />
    <vehicle id="275_2665" route="275" depart="2665" />
    <vehicle id="276_2667" route="276" depart="2667" />
    <vehicle id="277_2684" route="277" depart="2684" />
    <vehicle id="278_2697" route="278" depart="2697" />
    <vehicle id="279_2722" route="279" depart="2722" />
    <vehicle id="280_2736" route="280" depart="2736" />
    <vehicle id="281_2739" route="281" depart="2739" />
    <vehicle id="282_2740" route="282" depart="2740" />
    <vehicle id="283_2744" route="283" depart="2744" />
    <vehicle id="284_2745" route="284" depart="2745" />
    <vehicle id="285_2749" route="285" depart="2749" />
    <vehicle id="286_2756" route="286" depart="2756" />
    <vehicle id="287_2759" route="287" depart="2759" />
    <vehicle id="288_2763" route="288" depart="2763" />
    <vehicle id="289_2772" route="289" depart="2772" />
    <vehicle id="290_2802" route="290" depart="2802" />
    <vehicle id="291_2806" route="291" depart="2806" />
    <vehicle id="292_2808" route="292" depart="2808" />
    <vehicle id="293_2834" route="293" depart="2834" />
    <vehicle id="294_2870" route="294" depart="2870" />
    <vehicle id="295_2887" route="295" depart="2887" />
    <vehicle id="296_2888" route="296" depart="2888" />
    <vehicle id="297_2910" route="297" depart="2910" />