<routes>

    <route id="1" edges="4i 1o 5o"/>
    <route id="2" edges="6i 7o"/>
    <route id="3" edges="5i 1i 4o"/>
    <route id="4" edges="3i 2o"/>
    <route id="5" edges="3i 2o"/>
    <route id="6" edges="5i 1i 4o"/>
    <route id="7" edges="7i 6o"/>
    <route id="8" edges="7i 6o"/>
    <route id="9" edges="6i 7o"/>
    <route id="10" edges="7i 6o"/>
    <route id="11" edges="3i 2o"/>
    <route id="12" edges="3i 2o"/>
    <route id="13" edges="3i 2o"/>
    <route id="14" edges="5i 1i 4o"/>
    <route id="15" edges="5i 1i 4o"/>
    <route id="16" edges="7i 6o"/>
    <route id="17" edges="5i 1i 4o"/>
    <route id="18" edges="2i 3o"/>
    <route id="19" edges="4i 1o 5o"/>
    <route id="20" edges="4i 1o 5o"/>
    <route id="21" edges="3i 2o"/>
    <route id="22" edges="2i 3o"/>
    <route id="23" edges="2i 3o"/>
    <route id="24" edges="4i 1o 5o"/>
    <route id="25" edges="5i 1i 4o"/>
    <route id="26" edges="2i 3o"/>
    <route id="27" edges="6i 7o"/>
    <route id="28" edges="3i 2o"/>
    <route id="29" edges="7i 6o"/>
    <route id="30" edges="5i 1i 4o"/>
    <route id="31" edges="6i 7o"/>
    <route id="32" edges="7i 6o"/>
    <route id="33" edges="5i 1i 4o"/>

    <vehicle id="1_83" route="1" depart="83" />
    <vehicle id="2_139" route="2" depart="139" />
    <vehicle id="3_260" route="3" depart="260" />
    <vehicle id="4_418" route="4" depart="418" />
    <vehicle id="5_481" route="5" depart="481" />
    <vehicle id="6_530" route="6" depart="530" />
    <vehicle id="7_576" route="7" depart="576" />
    <vehicle id="8_689" route="8" depart="689" />
    <vehicle id="9_1031" route="9" depart="1031" />
    <vehicle id="10_1153" route="10" depart="1153" />
    <vehicle id="11_1309" route="11" depart="1309" />
    <vehicle id="12_1507" route="12" depart="1507" />
    <vehicle id="13_1693" route="13" depart="1693" />
    <vehicle id="14_1894" route="14" depart="1894" />
    <vehicle id="15_1916" route="15" depart="1916" />
    <vehicle id="16_2310" route="16" depart="2310" />
    <vehicle id="17_2326" route="17" depart="2326" />
    <vehicle id="18_2399" route="18" depart="2399" />
    <vehicle id="19_2474" route="19" depart="2474" />
    <vehicle id="20_2477" route="20" depart="2477" />
    <vehicle id="21_2545" route="21" depart="2545" />
    <vehicle id="22_2574" route="22" depart="2574" />
    <vehicle id="23_2735" route="23" depart="2735" />
    <vehicle id="24_2782" route="24" depart="2782" />
    <vehicle id="25_2820" route="25" depart="2820" />
    <vehicle id="26_3027" route="26" depart="3027" />
    <vehicle id="27_3031" route="27" depart="3031" />
    <vehicle id="28_3180" route="28" depart="3180" />
    <vehicle id="29_3203" route="29" depart="3203" />
    <vehicle id="30_3223" route="30" depart="3223" />
    <vehicle id="31_3234" route="31" depart="3234" />
    <vehicle id="32_3247" route="32" depart="3247" />
    <vehicle id="33_3295" route="33" depart="3295" />

</routes>