<routes>

    <route id="1" edges="3i 2o"/>
    <route id="2" edges="6i 7o"/>
    <route id="3" edges="5i 1i 4o"/>
    <route id="4" edges="5i 1i 4o"/>
    <route id="5" edges="3i 2o"/>
    <route id="6" edges="2i 3o"/>
    <route id="7" edges="5i 1i 4o"/>
    <route id="8" edges="4i 1o 5o"/>
    <route id="9" edges="4i 1o 5o"/>
    <route id="10" edges="6i 7o"/>
    <route id="11" edges="4i 1o 5o"/>
    <route id="12" edges="5i 1i 4o"/>
    <route id="13" edges="4i 1o 5o"/>
    <route id="14" edges="4i 1o 5o"/>
    <route id="15" edges="2i 3o"/>
    <route id="16" edges="7i 6o"/>
    <route id="17" edges="5i 1i 4o"/>
    <route id="18" edges="2i 3o"/>
    <route id="19" edges="3i 2o"/>
    <route id="20" edges="4i 1o 5o"/>
    <route id="21" edges="2i 3o"/>
    <route id="22" edges="4i 1o 5o"/>
    <route id="23" edges="2i 3o"/>
    <route id="24" edges="7i 6o"/>
    <route id="25" edges="6i 7o"/>
    <route id="26" edges="3i 2o"/>
    <route id="27" edges="5i 1i 4o"/>
    <route id="28" edges="7i 6o"/>
    <route id="29" edges="3i 2o"/>
    <route id="30" edges="4i 1o 5o"/>
    <route id="31" edges="6i 7o"/>
    <route id="32" edges="3i 2o"/>
    <route id="33" edges="6i 7o"/>
    <route id="34" edges="4i 1o 5o"/>
    <route id="35" edges="2i 3o"/>
    <route id="36" edges="2i 3o"/>
    <route id="37" edges="2i 3o"/>
    <route id="38" edges="4i 1o 5o"/>
    <route id="39" edges="6i 7o"/>
    <route id="40" edges="2i 3o"/>
    <route id="41" edges="2i 3o"/>
    <route id="42" edges="5i 1i 4o"/>
    <route id="43" edges="6i 7o"/>
    <route id="44" edges="4i 1o 5o"/>
    <route id="45" edges="5i 1i 4o"/>
    <route id="46" edges="4i 1o 5o"/>
    <route id="47" edges="6i 7o"/>
    <route id="48" edges="7i 6o"/>
    <route id="49" edges="7i 6o"/>
    <route id="50" edges="7i 6o"/>
    <route id="51" edges="3i 2o"/>
    <route id="52" edges="3i 2o"/>
    <route id="53" edges="4i 1o 5o"/>
    <route id="54" edges="5i 1i 4o"/>
    <route id="55" edges="7i 6o"/>
    <route id="56" edges="2i 3o"/>
    <route id="57" edges="5i 1i 4o"/>
    <route id="58" edges="7i 6o"/>
    <route id="59" edges="2i 3o"/>
    <route id="60" edges="5i 1i 4o"/>
    <route id="61" edges="7i 6o"/>
    <route id="62" edges="5i 1i 4o"/>
    <route id="63" edges="4i 1o 5o"/>
    <route id="64" edges="2i 3o"/>
    <route id="65" edges="7i 6o"/>
    <route id="66" edges="2i 3o"/>
    <route id="67" edges="5i 1i 4o"/>
    <route id="68" edges="6i 7o"/>
    <route id="69" edges="6i 7o"/>
    <route id="70" edges="5i 1i 4o"/>
    <route id="71" edges="7i 6o"/>
    <route id="72" edges="2i 3o"/>
    <route id="73" edges="4i 1o 5o"/>
    <route id="74" edges="6i 7o"/>
    <route id="75" edges="6i 7o"/>
    <route id="76" edges="4i 1o 5o"/>
    <route id="77" edges="5i 1i 4o"/>
    <route id="78" edges="7i 6o"/>
    <route id="79" edges="3i 2o"/>
    <route id="80" edges="2i 3o"/>
    <route id="81" edges="2i 3o"/>
    <route id="82" edges="3i 2o"/>
    <route id="83" edges="6i 7o"/>
    <route id="84" edges="7i 6o"/>
    <route id="85" edges="6i 7o"/>
    <route id="86" edges="7i 6o"/>
    <route id="87" edges="3i 2o"/>
    <route id="88" edges="3i 2o"/>
    <route id="89" edges="6i 7o"/>
    <route id="90" edges="5i 1i 4o"/>
    <route id="91" edges="3i 2o"/>
    <route id="92" edges="6i 7o"/>
    <route id="93" edges="2i 3o"/>
    <route id="94" edges="3i 2o"/>
    <route id="95" edges="3i 2o"/>
    <route id="96" edges="5i 1i 4o"/>
    <route id="97" edges="6i 7o"/>
    <route id="98" edges="6i 7o"/>
    <route id="99" edges="5i 1i 4o"/>
    <route id="100" edges="3i 2o"/>
    <route id="101" edges="2i 3o"/>
    <route id="102" edges="2i 3o"/>
    <route id="103" edges="5i 1i 4o"/>
    <route id="104" edges="3i 2o"/>
    <route id="105" edges="7i 6o"/>
    <route id="106" edges="4i 1o 5o"/>
    <route id="107" edges="3i 2o"/>
    <route id="108" edges="5i 1i 4o"/>
    <route id="109" edges="4i 1o 5o"/>
    <route id="110" edges="5i 1i 4o"/>
    <route id="111" edges="3i 2o"/>
    <route id="112" edges="7i 6o"/>
    <route id="113" edges="2i 3o"/>
    <route id="114" edges="5i 1i 4o"/>
    <route id="115" edges="5i 1i 4o"/>
    <route id="116" edges="4i 1o 5o"/>
    <route id="117" edges="3i 2o"/>
    <route id="118" edges="6i 7o"/>
    <route id="119" edges="2i 3o"/>
    <route id="120" edges="7i 6o"/>
    <route id="121" edges="7i 6o"/>
    <route id="122" edges="7i 6o"/>
    <route id="123" edges="3i 2o"/>
    <route id="124" edges="3i 2o"/>
    <route id="125" edges="4i 1o 5o"/>
    <route id="126" edges="5i 1i 4o"/>
    <route id="127" edges="7i 6o"/>
    <route id="128" edges="7i 6o"/>
    <route id="129" edges="2i 3o"/>
    <route id="130" edges="4i 1o 5o"/>
    <route id="131" edges="2i 3o"/>
    <route id="132" edges="5i 1i 4o"/>
    <route id="133" edges="7i 6o"/>
    <route id="134" edges="5i 1i 4o"/>
    <route id="135" edges="5i 1i 4o"/>
    <route id="136" edges="7i 6o"/>
    <route id="137" edges="2i 3o"/>
    <route id="138" edges="4i 1o 5o"/>
    <route id="139" edges="5i 1i 4o"/>
    <route id="140" edges="6i 7o"/>
    <route id="141" edges="7i 6o"/>
    <route id="142" edges="7i 6o"/>
    <route id="143" edges="3i 2o"/>
    <route id="144" edges="7i 6o"/>
    <route id="145" edges="4i 1o 5o"/>
    <route id="146" edges="2i 3o"/>
    <route id="147" edges="4i 1o 5o"/>
    <route id="148" edges="3i 2o"/>
    <route id="149" edges="6i 7o"/>
    <route id="150" edges="5i 1i 4o"/>
    <route id="151" edges="3i 2o"/>
    <route id="152" edges="3i 2o"/>
    <route id="153" edges="5i 1i 4o"/>
    <route id="154" edges="3i 2o"/>
    <route id="155" edges="7i 6o"/>
    <route id="156" edges="2i 3o"/>

    <vehicle id="1_8" route="1" depart="8" />
    <vehicle id="2_67" route="2" depart="67" />
    <vehicle id="3_97" route="3" depart="97" />
    <vehicle id="4_101" route="4" depart="101" />
    <vehicle id="5_182" route="5" depart="182" />
    <vehicle id="6_202" route="6" depart="202" />
    <vehicle id="7_223" route="7" depart="223" />
    <vehicle id="8_224" route="8" depart="224" />
    <vehicle id="9_247" route="9" depart="247" />
    <vehicle id="10_264" route="10" depart="264" />
    <vehicle id="11_276" route="11" depart="276" />
    <vehicle id="12_438" route="12" depart="438" />
    <vehicle id="13_451" route="13" depart="451" />
    <vehicle id="14_454" route="14" depart="454" />
    <vehicle id="15_496" route="15" depart="496" />
    <vehicle id="16_504" route="16" depart="504" />
    <vehicle id="17_508" route="17" depart="508" />
    <vehicle id="18_540" route="18" depart="540" />
    <vehicle id="19_560" route="19" depart="560" />
    <vehicle id="20_582" route="20" depart="582" />
    <vehicle id="21_605" route="21" depart="605" />
    <vehicle id="22_614" route="22" depart="614" />
    <vehicle id="23_631" route="23" depart="631" />
    <vehicle id="24_656" route="24" depart="656" />
    <vehicle id="25_689" route="25" depart="689" />
    <vehicle id="26_710" route="26" depart="710" />
    <vehicle id="27_729" route="27" depart="729" />
    <vehicle id="28_736" route="28" depart="736" />
    <vehicle id="29_753" route="29" depart="753" />
    <vehicle id="30_755" route="30" depart="755" />
    <vehicle id="31_763" route="31" depart="763" />
    <vehicle id="32_792" route="32" depart="792" />
    <vehicle id="33_801" route="33" depart="801" />
    <vehicle id="34_849" route="34" depart="849" />
    <vehicle id="35_884" route="35" depart="884" />
    <vehicle id="36_941" route="36" depart="941" />
    <vehicle id="37_972" route="37" depart="972" />
    <vehicle id="38_984" route="38" depart="984" />
    <vehicle id="39_993" route="39" depart="993" />
    <vehicle id="40_1014" route="40" depart="1014" />
    <vehicle id="41_1030" route="41" depart="1030" />
    <vehicle id="42_1065" route="42" depart="1065" />
    <vehicle id="43_1122" route="43" depart="1122" />
    <vehicle id="44_1127" route="44" depart="1127" />
    <vehicle id="45_1135" route="45" depart="1135" />
    <vehicle id="46_1138" route="46" depart="1138" />
    <vehicle id="47_1171" route="47" depart="1171" />
    <vehicle id="48_1180" route="48" depart="1180" />
    <vehicle id="49_1191" route="49" depart="1191" />
    <vehicle id="50_1193" route="50" depart="1193" />
    <vehicle id="51_1198" route="51" depart="1198" />
    <vehicle id="52_1215" route="52" depart="1215" />
    <vehicle id="53_1217" route="53" depart="1217" />
    <vehicle id="54_1221" route="54" depart="1221" />
    <vehicle id="55_1308" route="55" depart="1308" />
    <vehicle id="56_1309" route="56" depart="1309" />
    <vehicle id="57_1347" route="57" depart="1347" />
    <vehicle id="58_1421" route="58" depart="1421" />
    <vehicle id="59_1426" route="59" depart="1426" />
    <vehicle id="60_1500" route="60" depart="1500" />
    <vehicle id="61_1511" route="61" depart="1511" />
    <vehicle id="62_1520" route="62" depart="1520" />
    <vehicle id="63_1554" route="63" depart="1554" />
    <vehicle id="64_1570" route="64" depart="1570" />
    <vehicle id="65_1584" route="65" depart="1584" />
    <vehicle id="66_1594" route="66" depart="1594" />
    <vehicle id="67_1598" route="67" depart="1598" />
    <vehicle id="68_1608" route="68" depart="1608" />
    <vehicle id="69_1619" route="69" depart="1619" />
    <vehicle id="70_1626" route="70" depart="1626" />
    <vehicle id="71_1629" route="71" depart="1629" />
    <vehicle id="72_1635" route="72" depart="1635" />
    <vehicle id="73_1658" route="73" depart="1658" />
    <vehicle id="74_1679" route="74" depart="1679" />
    <vehicle id="75_1737" route="75" depart="1737" />
    <vehicle id="76_1768" route="76" depart="1768" />
    <vehicle id="77_1774" route="77" depart="1774" />
    <vehicle id="78_1847" route="78" depart="1847" />
    <vehicle id="79_1857" route="79" depart="1857" />
    <vehicle id="80_1865" route="80" depart="1865" />
    <vehicle id="81_1954" route="81" depart="1954" />
    <vehicle id="82_1972" route="82" depart="1972" />
    <vehicle id="83_1981" route="83" depart="1981" />
    <vehicle id="84_1988" route="84" depart="1988" />
    <vehicle id="85_2008" route="85" depart="2008" />
    <vehicle id="86_2058" route="86" depart="2058" />
    <vehicle id="87_2063" route="87" depart="2063" />
    <vehicle id="88_2122" route="88" depart="2122" />
    <vehicle id="89_2147" route="89" depart="2147" />
    <vehicle id="90_2179" route="90" depart="2179" />
    <vehicle id="91_2181" route="91" depart="2181" />
    <vehicle id="92_2185" route="92" depart="2185" />
    <vehicle id="93_2190" route="93" depart="2190" />
    <vehicle id="94_2206" route="94" depart="2206" />
    <vehicle id="95_2213" route="95" depart="2213" />
    <vehicle id="96_2214" route="96" depart="2214" />
    <vehicle id="97_2251" route="97" depart="2251" />
    <vehicle id="98_2252" route="98" depart="2252" />
    <vehicle id="99_2263" route="99" depart="2263" />
    <vehicle id="100_2337" route="100" depart="2337" />
    <vehicle id="101_2342" route="101" depart="2342" />
    <vehicle id="102_2363" route="102" depart="2363" />
    <vehicle id="103_2412" route="103" depart="2412" />
    <vehicle id="104_2427" route="104" depart="2427" />
    <vehicle id="105_2458" route="105" depart="2458" />
    <vehicle id="106_2497" route="106" depart="2497" />
    <vehicle id="107_2498" route="107" depart="2498" />
    <vehicle id="108_2540" route="108" depart="2540" />
    <vehicle id="109_2557" route="109" depart="2557" />
    <vehicle id="110_2571" route="110" depart="2571" />
    <vehicle id="111_2595" route="111" depart="2595" />
    <vehicle id="112_2597" route="112" depart="2597" />
    <vehicle id="113_2625" route="113" depart="2625" />
    <vehicle id="114_2651" route="114" depart="2651" />
    <vehicle id="115_2652" route="115" depart="2652" />
    <vehicle id="116_2656" route="116" depart="2656" />
    <vehicle id="117_2659" route="117" depart="2659" />
    <vehicle id="118_2666" route="118" depart="2666" />
    <vehicle id="119_2667" route="119" depart="2667" />
    <vehicle id="120_2668" route="120" depart="2668" />
    <vehicle id="121_2689" route="121" depart="2689" />
    <vehicle id="122_2758" route="122" depart="2758" />
    <vehicle id="123_2759" route="123" depart="2759" />
    <vehicle id="124_2794" route="124" depart="2794" />
    <vehicle id="125_2817" route="125" depart="2817" />
    <vehicle id="126_2821" route="126" depart="2821" />
    <vehicle id="127_2895" route="127" depart="2895" />
    <vehicle id="128_2912" route="128" depart="2912" />
    <vehicle id="129_2917" route="129" depart="2917" />
    <vehicle id="130_2956" route="130" depart="2956" />
    <vehicle id="131_2963" route="131" depart="2963" />
    <vehicle id="132_3023" route="132" depart="3023" />
    <vehicle id="133_3039" route="133" depart="3039" />
    <vehicle id="134_3040" route="134" depart="3040" />
    <vehicle id="135_3069" route="135" depart="3069" />
    <vehicle id="136_3075" route="136" depart="3075" />
    <vehicle id="137_3138" route="137" depart="3138" />
    <vehicle id="138_3149" route="138" depart="3149" />
    <vehicle id="139_3157" route="139" depart="3157" />
    <vehicle id="140_3171" route="140" depart="3171" />
    <vehicle id="141_3185" route="141" depart="3185" />
    <vehicle id="142_3188" route="142" depart="3188" />
    <vehicle id="143_3216" route="143" depart="3216" />
    <vehicle id="144_3230" route="144" depart="3230" />
    <vehicle id="145_3276" route="145" depart="3276" />
    <vehicle id="146_3308" route="146" depart="3308" />
    <vehicle id="147_3366" route="147" depart="3366" />
    <vehicle id="148_3396" route="148" depart="3396" />
    <vehicle id="149_3456" route="149" depart="3456" />
    <vehicle id="150_3464" route="150" depart="3464" />
    <vehicle id="151_3472" route="151" depart="3472" />
    <vehicle id="152_3474" route="152" depart="3474" />
    <vehicle id="153_3501" route="153" depart="3501" />
    <vehicle id="154_3552" route="154" depart="3552" />
    <vehicle id="155_3555" route="155" depart="3555" />
    <vehicle id="156_3567" route="156" depart="3567" />

</routes>