<routes>

    <route id="1" edges="5i 1i 4o"/>
    <route id="2" edges="4i 1o 5o"/>
    <route id="3" edges="7i 6o"/>
    <route id="4" edges="7i 6o"/>
    <route id="5" edges="6i 7o"/>
    <route id="6" edges="3i 2o"/>
    <route id="7" edges="3i 2o"/>
    <route id="8" edges="2i 3o"/>
    <route id="9" edges="3i 2o"/>
    <route id="10" edges="3i 2o"/>
    <route id="11" edges="5i 1i 4o"/>
    <route id="12" edges="6i 7o"/>
    <route id="13" edges="2i 3o"/>
    <route id="14" edges="6i 7o"/>
    <route id="15" edges="6i 7o"/>
    <route id="16" edges="3i 2o"/>
    <route id="17" edges="7i 6o"/>
    <route id="18" edges="2i 3o"/>
    <route id="19" edges="6i 7o"/>
    <route id="20" edges="2i 3o"/>
    <route id="21" edges="2i 3o"/>
    <route id="22" edges="3i 2o"/>
    <route id="23" edges="2i 3o"/>
    <route id="24" edges="5i 1i 4o"/>
    <route id="25" edges="5i 1i 4o"/>
    <route id="26" edges="3i 2o"/>
    <route id="27" edges="7i 6o"/>
    <route id="28" edges="4i 1o 5o"/>

    <vehicle id="1_111" route="1" depart="111" />
    <vehicle id="2_362" route="2" depart="362" />
    <vehicle id="3_407" route="3" depart="407" />
    <vehicle id="4_577" route="4" depart="577" />
    <vehicle id="5_746" route="5" depart="746" />
    <vehicle id="6_895" route="6" depart="895" />
    <vehicle id="7_899" route="7" depart="899" />
    <vehicle id="8_1273" route="8" depart="1273" />
    <vehicle id="9_1299" route="9" depart="1299" />
    <vehicle id="10_1351" route="10" depart="1351" />
    <vehicle id="11_1376" route="11" depart="1376" />
    <vehicle id="12_1457" route="12" depart="1457" />
    <vehicle id="13_1461" route="13" depart="1461" />
    <vehicle id="14_1509" route="14" depart="1509" />
    <vehicle id="15_1718" route="15" depart="1718" />
    <vehicle id="16_1876" route="16" depart="1876" />
    <vehicle id="17_2033" route="17" depart="2033" />
    <vehicle id="18_2173" route="18" depart="2173" />
    <vehicle id="19_2226" route="19" depart="2226" />
    <vehicle id="20_2573" route="20" depart="2573" />
    <vehicle id="21_2749" route="21" depart="2749" />
    <vehicle id="22_2766" route="22" depart="2766" />
    <vehicle id="23_2817" route="23" depart="2817" />
    <vehicle id="24_2820" route="24" depart="2820" />
    <vehicle id="25_2825" route="25" depart="2825" />
    <vehicle id="26_3009" route="26" depart="3009" />
    <vehicle id="27_3309" route="27" depart="3309" />
    <vehicle id="28_3501" route="28" depart="3501" />

</routes>