<routes>

    <route id="1" edges="5i 1i 4o"/>
    <route id="2" edges="5i 1i 4o"/>
    <route id="3" edges="7i 6o"/>
    <route id="4" edges="7i 6o"/>
    <route id="5" edges="5i 1i 4o"/>
    <route id="6" edges="3i 2o"/>
    <route id="7" edges="3i 2o"/>
    <route id="8" edges="5i 1i 4o"/>
    <route id="9" edges="2i 3o"/>
    <route id="10" edges="5i 1i 4o"/>
    <route id="11" edges="6i 7o"/>
    <route id="12" edges="2i 3o"/>
    <route id="13" edges="5i 1i 4o"/>
    <route id="14" edges="2i 3o"/>
    <route id="15" edges="3i 2o"/>
    <route id="16" edges="4i 1o 5o"/>
    <route id="17" edges="5i 1i 4o"/>
    <route id="18" edges="7i 6o"/>
    <route id="19" edges="2i 3o"/>
    <route id="20" edges="5i 1i 4o"/>
    <route id="21" edges="5i 1i 4o"/>
    <route id="22" edges="6i 7o"/>
    <route id="23" edges="4i 1o 5o"/>
    <route id="24" edges="4i 1o 5o"/>
    <route id="25" edges="7i 6o"/>
    <route id="26" edges="2i 3o"/>
    <route id="27" edges="6i 7o"/>
    <route id="28" edges="2i 3o"/>
    <route id="29" edges="2i 3o"/>
    <route id="30" edges="5i 1i 4o"/>
    <route id="31" edges="7i 6o"/>
    <route id="32" edges="6i 7o"/>
    <route id="33" edges="6i 7o"/>
    <route id="34" edges="6i 7o"/>
    <route id="35" edges="7i 6o"/>
    <route id="36" edges="4i 1o 5o"/>
    <route id="37" edges="4i 1o 5o"/>
    <route id="38" edges="5i 1i 4o"/>
    <route id="39" edges="5i 1i 4o"/>
    <route id="40" edges="7i 6o"/>
    <route id="41" edges="6i 7o"/>
    <route id="42" edges="7i 6o"/>
    <route id="43" edges="2i 3o"/>
    <route id="44" edges="4i 1o 5o"/>
    <route id="45" edges="2i 3o"/>
    <route id="46" edges="4i 1o 5o"/>
    <route id="47" edges="5i 1i 4o"/>
    <route id="48" edges="4i 1o 5o"/>
    <route id="49" edges="6i 7o"/>
    <route id="50" edges="3i 2o"/>
    <route id="51" edges="4i 1o 5o"/>
    <route id="52" edges="7i 6o"/>
    <route id="53" edges="2i 3o"/>
    <route id="54" edges="3i 2o"/>
    <route id="55" edges="5i 1i 4o"/>
    <route id="56" edges="7i 6o"/>
    <route id="57" edges="6i 7o"/>
    <route id="58" edges="2i 3o"/>
    <route id="59" edges="5i 1i 4o"/>
    <route id="60" edges="7i 6o"/>
    <route id="61" edges="7i 6o"/>
    <route id="62" edges="5i 1i 4o"/>
    <route id="63" edges="5i 1i 4o"/>
    <route id="64" edges="7i 6o"/>
    <route id="65" edges="7i 6o"/>
    <route id="66" edges="4i 1o 5o"/>
    <route id="67" edges="5i 1i 4o"/>
    <route id="68" edges="2i 3o"/>
    <route id="69" edges="2i 3o"/>
    <route id="70" edges="6i 7o"/>
    <route id="71" edges="2i 3o"/>
    <route id="72" edges="7i 6o"/>
    <route id="73" edges="4i 1o 5o"/>
    <route id="74" edges="6i 7o"/>
    <route id="75" edges="5i 1i 4o"/>
    <route id="76" edges="4i 1o 5o"/>
    <route id="77" edges="2i 3o"/>
    <route id="78" edges="2i 3o"/>
    <route id="79" edges="5i 1i 4o"/>
    <route id="80" edges="6i 7o"/>
    <route id="81" edges="3i 2o"/>
    <route id="82" edges="5i 1i 4o"/>
    <route id="83" edges="3i 2o"/>
    <route id="84" edges="3i 2o"/>
    <route id="85" edges="2i 3o"/>
    <route id="86" edges="5i 1i 4o"/>
    <route id="87" edges="3i 2o"/>
    <route id="88" edges="7i 6o"/>
    <route id="89" edges="2i 3o"/>
    <route id="90" edges="7i 6o"/>
    <route id="91" edges="4i 1o 5o"/>
    <route id="92" edges="7i 6o"/>
    <route id="93" edges="2i 3o"/>
    <route id="94" edges="5i 1i 4o"/>
    <route id="95" edges="2i 3o"/>
    <route id="96" edges="2i 3o"/>
    <route id="97" edges="2i 3o"/>
    <route id="98" edges="4i 1o 5o"/>
    <route id="99" edges="7i 6o"/>
    <route id="100" edges="6i 7o"/>
    <route id="101" edges="7i 6o"/>
    <route id="102" edges="7i 6o"/>
    <route id="103" edges="6i 7o"/>
    <route id="104" edges="6i 7o"/>
    <route id="105" edges="3i 2o"/>
    <route id="106" edges="7i 6o"/>
    <route id="107" edges="3i 2o"/>
    <route id="108" edges="3i 2o"/>
    <route id="109" edges="7i 6o"/>
    <route id="110" edges="4i 1o 5o"/>
    <route id="111" edges="7i 6o"/>
    <route id="112" edges="7i 6o"/>
    <route id="113" edges="6i 7o"/>
    <route id="114" edges="2i 3o"/>
    <route id="115" edges="7i 6o"/>
    <route id="116" edges="6i 7o"/>
    <route id="117" edges="7i 6o"/>
    <route id="118" edges="3i 2o"/>
    <route id="119" edges="6i 7o"/>
    <route id="120" edges="3i 2o"/>
    <route id="121" edges="2i 3o"/>
    <route id="122" edges="7i 6o"/>
    <route id="123" edges="2i 3o"/>
    <route id="124" edges="2i 3o"/>
    <route id="125" edges="6i 7o"/>
    <route id="126" edges="6i 7o"/>
    <route id="127" edges="6i 7o"/>
    <route id="128" edges="7i 6o"/>
    <route id="129" edges="6i 7o"/>
    <route id="130" edges="5i 1i 4o"/>
    <route id="131" edges="5i 1i 4o"/>
    <route id="132" edges="3i 2o"/>
    <route id="133" edges="5i 1i 4o"/>
    <route id="134" edges="6i 7o"/>
    <route id="135" edges="6i 7o"/>
    <route id="136" edges="2i 3o"/>
    <route id="137" edges="3i 2o"/>
    <route id="138" edges="5i 1i 4o"/>
    <route id="139" edges="7i 6o"/>
    <route id="140" edges="4i 1o 5o"/>
    <route id="141" edges="6i 7o"/>
    <route id="142" edges="3i 2o"/>
    <route id="143" edges="3i 2o"/>
    <route id="144" edges="5i 1i 4o"/>
    <route id="145" edges="3i 2o"/>
    <route id="146" edges="6i 7o"/>
    <route id="147" edges="2i 3o"/>
    <route id="148" edges="5i 1i 4o"/>
    <route id="149" edges="4i 1o 5o"/>
    <route id="150" edges="3i 2o"/>
    <route id="151" edges="6i 7o"/>
    <route id="152" edges="6i 7o"/>
    <route id="153" edges="7i 6o"/>
    <route id="154" edges="5i 1i 4o"/>
    <route id="155" edges="7i 6o"/>
    <route id="156" edges="7i 6o"/>
    <route id="157" edges="2i 3o"/>
    <route id="158" edges="7i 6o"/>
    <route id="159" edges="3i 2o"/>
    <route id="160" edges="2i 3o"/>
    <route id="161" edges="4i 1o 5o"/>
    <route id="162" edges="2i 3o"/>
    <route id="163" edges="6i 7o"/>
    <route id="164" edges="4i 1o 5o"/>
    <route id="165" edges="6i 7o"/>
    <route id="166" edges="3i 2o"/>
    <route id="167" edges="4i 1o 5o"/>
    <route id="168" edges="3i 2o"/>
    <route id="169" edges="6i 7o"/>
    <route id="170" edges="2i 3o"/>
    <route id="171" edges="5i 1i 4o"/>
    <route id="172" edges="4i 1o 5o"/>
    <route id="173" edges="6i 7o"/>
    <route id="174" edges="6i 7o"/>
    <route id="175" edges="4i 1o 5o"/>
    <route id="176" edges="7i 6o"/>
    <route id="177" edges="2i 3o"/>
    <route id="178" edges="6i 7o"/>
    <route id="179" edges="5i 1i 4o"/>
    <route id="180" edges="2i 3o"/>
    <route id="181" edges="2i 3o"/>
    <route id="182" edges="6i 7o"/>
    <route id="183" edges="2i 3o"/>
    <route id="184" edges="6i 7o"/>
    <route id="185" edges="5i 1i 4o"/>
    <route id="186" edges="3i 2o"/>

    <vehicle id="1_8" route="1" depart="8" />
    <vehicle id="2_9" route="2" depart="9" />
    <vehicle id="3_17" route="3" depart="17" />
    <vehicle id="4_24" route="4" depart="24" />
    <vehicle id="5_91" route="5" depart="91" />
    <vehicle id="6_99" route="6" depart="99" />
    <vehicle id="7_191" route="7" depart="191" />
    <vehicle id="8_196" route="8" depart="196" />
    <vehicle id="9_219" route="9" depart="219" />
    <vehicle id="10_234" route="10" depart="234" />
    <vehicle id="11_286" route="11" depart="286" />
    <vehicle id="12_307" route="12" depart="307" />
    <vehicle id="13_321" route="13" depart="321" />
    <vehicle id="14_329" route="14" depart="329" />
    <vehicle id="15_341" route="15" depart="341" />
    <vehicle id="16_404" route="16" depart="404" />
    <vehicle id="17_408" route="17" depart="408" />
    <vehicle id="18_427" route="18" depart="427" />
    <vehicle id="19_440" route="19" depart="440" />
    <vehicle id="20_447" route="20" depart="447" />
    <vehicle id="21_453" route="21" depart="453" />
    <vehicle id="22_466" route="22" depart="466" />
    <vehicle id="23_470" route="23" depart="470" />
    <vehicle id="24_474" route="24" depart="474" />
    <vehicle id="25_498" route="25" depart="498" />
    <vehicle id="26_505" route="26" depart="505" />
    <vehicle id="27_511" route="27" depart="511" />
    <vehicle id="28_531" route="28" depart="531" />
    <vehicle id="29_535" route="29" depart="535" />
    <vehicle id="30_618" route="30" depart="618" />
    <vehicle id="31_650" route="31" depart="650" />
    <vehicle id="32_686" route="32" depart="686" />
    <vehicle id="33_730" route="33" depart="730" />
    <vehicle id="34_739" route="34" depart="739" />
    <vehicle id="35_744" route="35" depart="744" />
    <vehicle id="36_770" route="36" depart="770" />
    <vehicle id="37_784" route="37" depart="784" />
    <vehicle id="38_787" route="38" depart="787" />
    <vehicle id="39_794" route="39" depart="794" />
    <vehicle id="40_811" route="40" depart="811" />
    <vehicle id="41_820" route="41" depart="820" />
    <vehicle id="42_829" route="42" depart="829" />
    <vehicle id="43_851" route="43" depart="851" />
    <vehicle id="44_866" route="44" depart="866" />
    <vehicle id="45_920" route="45" depart="920" />
    <vehicle id="46_922" route="46" depart="922" />
    <vehicle id="47_945" route="47" depart="945" />
    <vehicle id="48_948" route="48" depart="948" />
    <vehicle id="49_954" route="49" depart="954" />
    <vehicle id="50_975" route="50" depart="975" />
    <vehicle id="51_976" route="51" depart="976" />
    <vehicle id="52_983" route="52" depart="983" />
    <vehicle id="53_994" route="53" depart="994" />
    <vehicle id="54_1009" route="54" depart="1009" />
    <vehicle id="55_1025" route="55" depart="1025" />
    <vehicle id="56_1044" route="56" depart="1044" />
    <vehicle id="57_1068" route="57" depart="1068" />
    <vehicle id="58_1099" route="58" depart="1099" />
    <vehicle id="59_1110" route="59" depart="1110" />
    <vehicle id="60_1168" route="60" depart="1168" />
    <vehicle id="61_1216" route="61" depart="1216" />
    <vehicle id="62_1229" route="62" depart="1229" />
    <vehicle id="63_1239" route="63" depart="1239" />
    <vehicle id="64_1246" route="64" depart="1246" />
    <vehicle id="65_1295" route="65" depart="1295" />
    <vehicle id="66_1297" route="66" depart="1297" />
    <vehicle id="67_1315" route="67" depart="1315" />
    <vehicle id="68_1320" route="68" depart="1320" />
    <vehicle id="69_1322" route="69" depart="1322" />
    <vehicle id="70_1323" route="70" depart="1323" />
    <vehicle id="71_1367" route="71" depart="1367" />
    <vehicle id="72_1370" route="72" depart="1370" />
    <vehicle id="73_1373" route="73" depart="1373" />
    <vehicle id="74_1443" route="74" depart="1443" />
    <vehicle id="75_1449" route="75" depart="1449" />
    <vehicle id="76_1457" route="76" depart="1457" />
    <vehicle id="77_1482" route="77" depart="1482" />
    <vehicle id="78_1493" route="78" depart="1493" />
    <vehicle id="79_1495" route="79" depart="1495" />
    <vehicle id="80_1512" route="80" depart="1512" />
    <vehicle id="81_1560" route="81" depart="1560" />
    <vehicle id="82_1568" route="82" depart="1568" />
    <vehicle id="83_1578" route="83" depart="1578" />
    <vehicle id="84_1611" route="84" depart="1611" />
    <vehicle id="85_1633" route="85" depart="1633" />
    <vehicle id="86_1635" route="86" depart="1635" />
    <vehicle id="87_1687" route="87" depart="1687" />
    <vehicle id="88_1739" route="88" depart="1739" />
    <vehicle id="89_1785" route="89" depart="1785" />
    <vehicle id="90_1804" route="90" depart="1804" />
    <vehicle id="91_1811" route="91" depart="1811" />
    <vehicle id="92_1824" route="92" depart="1824" />
    <vehicle id="93_1874" route="93" depart="1874" />
    <vehicle id="94_1924" route="94" depart="1924" />
    <vehicle id="95_1975" route="95" depart="1975" />
    <vehicle id="96_1986" route="96" depart="1986" />
    <vehicle id="97_2005" route="97" depart="2005" />
    <vehicle id="98_2017" route="98" depart="2017" />
    <vehicle id="99_2043" route="99" depart="2043" />
    <vehicle id="100_2060" route="100" depart="2060" />
    <vehicle id="101_2073" route="101" depart="2073" />
    <vehicle id="102_2078" route="102" depart="2078" />
    <vehicle id="103_2126" route="103" depart="2126" />
    <vehicle id="104_2140" route="104" depart="2140" />
    <vehicle id="105_2163" route="105" depart="2163" />
    <vehicle id="106_2165" route="106" depart="2165" />
    <vehicle id="107_2173" route="107" depart="2173" />
    <vehicle id="108_2223" route="108" depart="2223" />
    <vehicle id="109_2231" route="109" depart="2231" />
    <vehicle id="110_2237" route="110" depart="2237" />
    <vehicle id="111_2244" route="111" depart="2244" />
    <vehicle id="112_2294" route="112" depart="2294" />
    <vehicle id="113_2321" route="113" depart="2321" />
    <vehicle id="114_2323" route="114" depart="2323" />
    <vehicle id="115_2369" route="115" depart="2369" />
    <vehicle id="116_2376" route="116" depart="2376" />
    <vehicle id="117_2403" route="117" depart="2403" />
    <vehicle id="118_2442" route="118" depart="2442" />
    <vehicle id="119_2455" route="119" depart="2455" />
    <vehicle id="120_2457" route="120" depart="2457" />
    <vehicle id="121_2461" route="121" depart="2461" />
    <vehicle id="122_2481" route="122" depart="2481" />
    <vehicle id="123_2511" route="123" depart="2511" />
    <vehicle id="124_2516" route="124" depart="2516" />
    <vehicle id="125_2522" route="125" depart="2522" />
    <vehicle id="126_2528" route="126" depart="2528" />
    <vehicle id="127_2560" route="127" depart="2560" />
    <vehicle id="128_2562" route="128" depart="2562" />
    <vehicle id="129_2596" route="129" depart="2596" />
    <vehicle id="130_2624" route="130" depart="2624" />
    <vehicle id="131_2646" route="131" depart="2646" />
    <vehicle id="132_2665" route="132" depart="2665" />
    <vehicle id="133_2680" route="133" depart="2680" />
    <vehicle id="134_2686" route="134" depart="2686" />
    <vehicle id="135_2691" route="135" depart="2691" />
    <vehicle id="136_2709" route="136" depart="2709" />
    <vehicle id="137_2715" route="137" depart="2715" />
    <vehicle id="138_2748" route="138" depart="2748" />
    <vehicle id="139_2774" route="139" depart="2774" />
    <vehicle id="140_2797" route="140" depart="2797" />
    <vehicle id="141_2807" route="141" depart="2807" />
    <vehicle id="142_2809" route="142" depart="2809" />
    <vehicle id="143_2832" route="143" depart="2832" />
    <vehicle id="144_2833" route="144" depart="2833" />
    <vehicle id="145_2903" route="145" depart="2903" />
    <vehicle id="146_2920" route="146" depart="2920" />
    <vehicle id="147_2941" route="147" depart="2941" />
    <vehicle id="148_2950" route="148" depart="2950" />
    <vehicle id="149_2969" route="149" depart="2969" />
    <vehicle id="150_2976" route="150" depart="2976" />
    <vehicle id="151_3004" route="151" depart="3004" />
    <vehicle id="152_3047" route="152" depart="3047" />
    <vehicle id="153_3061" route="153" depart="3061" />
    <vehicle id="154_3092" route="154" depart="3092" />
    <vehicle id="155_3108" route="155" depart="3108" />
    <vehicle id="156_3142" route="156" depart="3142" />
    <vehicle id="157_3148" route="157" depart="3148" />
    <vehicle id="158_3152" route="158" depart="3152" />
    <vehicle id="159_3180" route="159" depart="3180" />
    <vehicle id="160_3207" route="160" depart="3207" />
    <vehicle id="161_3208" route="161" depart="3208" />
    <vehicle id="162_3262" route="162" depart="3262" />
    <vehicle id="163_3273" route="163" depart="3273" />
    <vehicle id="164_3286" route="164" depart="3286" />
    <vehicle id="165_3323" route="165" depart="3323" />
    <vehicle id="166_3326" route="166" depart="3326" />
    <vehicle id="167_3334" route="167" depart="3334" />
    <vehicle id="168_3341" route="168" depart="3341" />
    <vehicle id="169_3344" route="169" depart="3344" />
    <vehicle id="170_3351" route="170" depart="3351" />
    <vehicle id="171_3371" route="171" depart="3371" />
    <vehicle id="172_3407" route="172" depart="3407" />
    <vehicle id="173_3410" route="173" depart="3410" />
    <vehicle id="174_3415" route="174" depart="3415" />
    <vehicle id="175_3462" route="175" depart="3462" />
    <vehicle id="176_3467" route="176" depart="3467" />
    <vehicle id="177_3475" route="177" depart="3475" />
    <vehicle id="178_3481" route="178" depart="3481" />
    <vehicle id="179_3507" route="179" depart="3507" />
    <vehicle id="180_3532" route="180" depart="3532" />
    <vehicle id="181_3547" route="181" depart="3547" />
    <vehicle id="182_3550" route="182" depart="3550" />
    <vehicle id="183_3553" route="183" depart="3553" />
    <vehicle id="184_3589" route="184" depart="3589" />
    <vehicle id="185_3594" route="185" depart="3594" />
    <vehicle id="186_3598" route="186" depart="3598" />

</routes>