<routes>

    <route id="1" edges="6i 7o"/>
    <route id="2" edges="4i 1o 5o"/>
    <route id="3" edges="4i 1o 5o"/>
    <route id="4" edges="7i 6o"/>
    <route id="5" edges="5i 1i 4o"/>
    <route id="6" edges="2i 3o"/>
    <route id="7" edges="5i 1i 4o"/>
    <route id="8" edges="3i 2o"/>
    <route id="9" edges="7i 6o"/>
    <route id="10" edges="7i 6o"/>
    <route id="11" edges="4i 1o 5o"/>
    <route id="12" edges="3i 2o"/>
    <route id="13" edges="5i 1i 4o"/>
    <route id="14" edges="3i 2o"/>
    <route id="15" edges="6i 7o"/>
    <route id="16" edges="4i 1o 5o"/>
    <route id="17" edges="6i 7o"/>
    <route id="18" edges="5i 1i 4o"/>
    <route id="19" edges="4i 1o 5o"/>
    <route id="20" edges="7i 6o"/>
    <route id="21" edges="6i 7o"/>
    <route id="22" edges="7i 6o"/>
    <route id="23" edges="2i 3o"/>
    <route id="24" edges="6i 7o"/>
    <route id="25" edges="7i 6o"/>
    <route id="26" edges="6i 7o"/>
    <route id="27" edges="2i 3o"/>
    <route id="28" edges="5i 1i 4o"/>
    <route id="29" edges="2i 3o"/>
    <route id="30" edges="6i 7o"/>
    <route id="31" edges="4i 1o 5o"/>
    <route id="32" edges="7i 6o"/>
    <route id="33" edges="2i 3o"/>
    <route id="34" edges="5i 1i 4o"/>
    <route id="35" edges="5i 1i 4o"/>
    <route id="36" edges="6i 7o"/>
    <route id="37" edges="4i 1o 5o"/>
    <route id="38" edges="3i 2o"/>
    <route id="39" edges="4i 1o 5o"/>
    <route id="40" edges="7i 6o"/>
    <route id="41" edges="6i 7o"/>
    <route id="42" edges="2i 3o"/>
    <route id="43" edges="5i 1i 4o"/>
    <route id="44" edges="6i 7o"/>
    <route id="45" edges="6i 7o"/>
    <route id="46" edges="7i 6o"/>
    <route id="47" edges="3i 2o"/>
    <route id="48" edges="7i 6o"/>
    <route id="49" edges="6i 7o"/>
    <route id="50" edges="6i 7o"/>
    <route id="51" edges="5i 1i 4o"/>
    <route id="52" edges="5i 1i 4o"/>
    <route id="53" edges="7i 6o"/>
    <route id="54" edges="7i 6o"/>
    <route id="55" edges="7i 6o"/>
    <route id="56" edges="3i 2o"/>
    <route id="57" edges="7i 6o"/>
    <route id="58" edges="6i 7o"/>
    <route id="59" edges="2i 3o"/>
    <route id="60" edges="2i 3o"/>
    <route id="61" edges="6i 7o"/>
    <route id="62" edges="2i 3o"/>
    <route id="63" edges="7i 6o"/>
    <route id="64" edges="3i 2o"/>
    <route id="65" edges="6i 7o"/>
    <route id="66" edges="3i 2o"/>
    <route id="67" edges="3i 2o"/>
    <route id="68" edges="5i 1i 4o"/>
    <route id="69" edges="4i 1o 5o"/>
    <route id="70" edges="6i 7o"/>
    <route id="71" edges="2i 3o"/>
    <route id="72" edges="6i 7o"/>
    <route id="73" edges="3i 2o"/>
    <route id="74" edges="2i 3o"/>
    <route id="75" edges="4i 1o 5o"/>
    <route id="76" edges="2i 3o"/>
    <route id="77" edges="6i 7o"/>
    <route id="78" edges="6i 7o"/>
    <route id="79" edges="6i 7o"/>
    <route id="80" edges="2i 3o"/>
    <route id="81" edges="5i 1i 4o"/>
    <route id="82" edges="6i 7o"/>
    <route id="83" edges="6i 7o"/>
    <route id="84" edges="6i 7o"/>
    <route id="85" edges="7i 6o"/>
    <route id="86" edges="6i 7o"/>
    <route id="87" edges="2i 3o"/>
    <route id="88" edges="2i 3o"/>
    <route id="89" edges="5i 1i 4o"/>
    <route id="90" edges="6i 7o"/>
    <route id="91" edges="5i 1i 4o"/>
    <route id="92" edges="7i 6o"/>
    <route id="93" edges="4i 1o 5o"/>
    <route id="94" edges="2i 3o"/>
    <route id="95" edges="3i 2o"/>
    <route id="96" edges="5i 1i 4o"/>
    <route id="97" edges="5i 1i 4o"/>
    <route id="98" edges="2i 3o"/>
    <route id="99" edges="5i 1i 4o"/>
    <route id="100" edges="3i 2o"/>
    <route id="101" edges="2i 3o"/>
    <route id="102" edges="3i 2o"/>
    <route id="103" edges="6i 7o"/>
    <route id="104" edges="7i 6o"/>
    <route id="105" edges="5i 1i 4o"/>
    <route id="106" edges="2i 3o"/>
    <route id="107" edges="4i 1o 5o"/>
    <route id="108" edges="4i 1o 5o"/>
    <route id="109" edges="6i 7o"/>
    <route id="110" edges="7i 6o"/>
    <route id="111" edges="7i 6o"/>
    <route id="112" edges="5i 1i 4o"/>
    <route id="113" edges="3i 2o"/>
    <route id="114" edges="2i 3o"/>
    <route id="115" edges="5i 1i 4o"/>
    <route id="116" edges="4i 1o 5o"/>
    <route id="117" edges="5i 1i 4o"/>
    <route id="118" edges="7i 6o"/>
    <route id="119" edges="5i 1i 4o"/>
    <route id="120" edges="4i 1o 5o"/>
    <route id="121" edges="4i 1o 5o"/>
    <route id="122" edges="5i 1i 4o"/>
    <route id="123" edges="3i 2o"/>
    <route id="124" edges="2i 3o"/>
    <route id="125" edges="4i 1o 5o"/>
    <route id="126" edges="5i 1i 4o"/>
    <route id="127" edges="3i 2o"/>
    <route id="128" edges="3i 2o"/>
    <route id="129" edges="2i 3o"/>
    <route id="130" edges="3i 2o"/>
    <route id="131" edges="3i 2o"/>
    <route id="132" edges="2i 3o"/>
    <route id="133" edges="7i 6o"/>
    <route id="134" edges="6i 7o"/>
    <route id="135" edges="2i 3o"/>
    <route id="136" edges="6i 7o"/>
    <route id="137" edges="2i 3o"/>
    <route id="138" edges="5i 1i 4o"/>
    <route id="139" edges="2i 3o"/>
    <route id="140" edges="5i 1i 4o"/>
    <route id="141" edges="6i 7o"/>
    <route id="142" edges="4i 1o 5o"/>
    <route id="143" edges="2i 3o"/>
    <route id="144" edges="4i 1o 5o"/>
    <route id="145" edges="6i 7o"/>
    <route id="146" edges="2i 3o"/>
    <route id="147" edges="4i 1o 5o"/>
    <route id="148" edges="4i 1o 5o"/>
    <route id="149" edges="6i 7o"/>
    <route id="150" edges="7i 6o"/>
    <route id="151" edges="6i 7o"/>
    <route id="152" edges="6i 7o"/>
    <route id="153" edges="5i 1i 4o"/>
    <route id="154" edges="2i 3o"/>
    <route id="155" edges="7i 6o"/>
    <route id="156" edges="7i 6o"/>
    <route id="157" edges="6i 7o"/>
    <route id="158" edges="2i 3o"/>
    <route id="159" edges="4i 1o 5o"/>
    <route id="160" edges="2i 3o"/>
    <route id="161" edges="3i 2o"/>
    <route id="162" edges="5i 1i 4o"/>
    <route id="163" edges="3i 2o"/>
    <route id="164" edges="7i 6o"/>
    <route id="165" edges="2i 3o"/>
    <route id="166" edges="7i 6o"/>
    <route id="167" edges="4i 1o 5o"/>
    <route id="168" edges="7i 6o"/>
    <route id="169" edges="6i 7o"/>
    <route id="170" edges="7i 6o"/>
    <route id="171" edges="6i 7o"/>
    <route id="172" edges="6i 7o"/>
    <route id="173" edges="4i 1o 5o"/>
    <route id="174" edges="5i 1i 4o"/>
    <route id="175" edges="2i 3o"/>
    <route id="176" edges="3i 2o"/>
    <route id="177" edges="7i 6o"/>
    <route id="178" edges="7i 6o"/>
    <route id="179" edges="7i 6o"/>
    <route id="180" edges="5i 1i 4o"/>
    <route id="181" edges="6i 7o"/>
    <route id="182" edges="4i 1o 5o"/>
    <route id="183" edges="7i 6o"/>
    <route id="184" edges="7i 6o"/>
    <route id="185" edges="7i 6o"/>
    <route id="186" edges="6i 7o"/>
    <route id="187" edges="6i 7o"/>
    <route id="188" edges="7i 6o"/>
    <route id="189" edges="3i 2o"/>
    <route id="190" edges="3i 2o"/>
    <route id="191" edges="7i 6o"/>
    <route id="192" edges="4i 1o 5o"/>
    <route id="193" edges="7i 6o"/>
    <route id="194" edges="2i 3o"/>
    <route id="195" edges="6i 7o"/>
    <route id="196" edges="2i 3o"/>
    <route id="197" edges="2i 3o"/>
    <route id="198" edges="3i 2o"/>
    <route id="199" edges="5i 1i 4o"/>
    <route id="200" edges="4i 1o 5o"/>
    <route id="201" edges="2i 3o"/>
    <route id="202" edges="6i 7o"/>
    <route id="203" edges="3i 2o"/>
    <route id="204" edges="2i 3o"/>
    <route id="205" edges="2i 3o"/>
    <route id="206" edges="6i 7o"/>
    <route id="207" edges="3i 2o"/>
    <route id="208" edges="2i 3o"/>
    <route id="209" edges="6i 7o"/>
    <route id="210" edges="3i 2o"/>
    <route id="211" edges="2i 3o"/>
    <route id="212" edges="7i 6o"/>
    <route id="213" edges="3i 2o"/>
    <route id="214" edges="3i 2o"/>
    <route id="215" edges="2i 3o"/>
    <route id="216" edges="5i 1i 4o"/>
    <route id="217" edges="3i 2o"/>
    <route id="218" edges="5i 1i 4o"/>
    <route id="219" edges="5i 1i 4o"/>
    <route id="220" edges="5i 1i 4o"/>
    <route id="221" edges="5i 1i 4o"/>
    <route id="222" edges="5i 1i 4o"/>
    <route id="223" edges="2i 3o"/>
    <route id="224" edges="2i 3o"/>
    <route id="225" edges="4i 1o 5o"/>
    <route id="226" edges="7i 6o"/>
    <route id="227" edges="4i 1o 5o"/>
    <route id="228" edges="2i 3o"/>
    <route id="229" edges="5i 1i 4o"/>
    <route id="230" edges="3i 2o"/>
    <route id="231" edges="7i 6o"/>
    <route id="232" edges="2i 3o"/>
    <route id="233" edges="5i 1i 4o"/>
    <route id="234" edges="2i 3o"/>
    <route id="235" edges="3i 2o"/>
    <route id="236" edges="4i 1o 5o"/>
    <route id="237" edges="6i 7o"/>
    <route id="238" edges="7i 6o"/>
    <route id="239" edges="3i 2o"/>
    <route id="240" edges="4i 1o 5o"/>
    <route id="241" edges="3i 2o"/>
    <route id="242" edges="2i 3o"/>
    <route id="243" edges="4i 1o 5o"/>
    <route id="244" edges="2i 3o"/>
    <route id="245" edges="2i 3o"/>
    <route id="246" edges="3i 2o"/>
    <route id="247" edges="4i 1o 5o"/>
    <route id="248" edges="5i 1i 4o"/>
    <route id="249" edges="4i 1o 5o"/>
    <route id="250" edges="3i 2o"/>
    <route id="251" edges="6i 7o"/>
    <route id="252" edges="5i 1i 4o"/>
    <route id="253" edges="2i 3o"/>
    <route id="254" edges="6i 7o"/>
    <route id="255" edges="5i 1i 4o"/>
    <route id="256" edges="6i 7o"/>
    <route id="257" edges="4i 1o 5o"/>
    <route id="258" edges="4i 1o 5o"/>
    <route id="259" edges="6i 7o"/>
    <route id="260" edges="4i 1o 5o"/>
    <route id="261" edges="6i 7o"/>
    <route id="262" edges="4i 1o 5o"/>
    <route id="263" edges="4i 1o 5o"/>
    <route id="264" edges="5i 1i 4o"/>
    <route id="265" edges="7i 6o"/>
    <route id="266" edges="3i 2o"/>
    <route id="267" edges="5i 1i 4o"/>
    <route id="268" edges="3i 2o"/>
    <route id="269" edges="7i 6o"/>
    <route id="270" edges="5i 1i 4o"/>
    <route id="271" edges="7i 6o"/>
    <route id="272" edges="6i 7o"/>
    <route id="273" edges="3i 2o"/>
    <route id="274" edges="5i 1i 4o"/>
    <route id="275" edges="3i 2o"/>
    <route id="276" edges="5i 1i 4o"/>
    <route id="277" edges="7i 6o"/>
    <route id="278" edges="2i 3o"/>
    <route id="279" edges="2i 3o"/>
    <route id="280" edges="2i 3o"/>
    <route id="281" edges="6i 7o"/>
    <route id="282" edges="6i 7o"/>
    <route id="283" edges="2i 3o"/>
    <route id="284" edges="3i 2o"/>
    <route id="285" edges="7i 6o"/>
    <route id="286" edges="7i 6o"/>
    <route id="287" edges="6i 7o"/>
    <route id="288" edges="6i 7o"/>
    <route id="289" edges="6i 7o"/>
    <route id="290" edges="5i 1i 4o"/>
    <route id="291" edges="2i 3o"/>
    <route id="292" edges="5i 1i 4o"/>
    <route id="293" edges="3i 2o"/>
    <route id="294" edges="2i 3o"/>
    <route id="295" edges="4i 1o 5o"/>
    <route id="296" edges="5i 1i 4o"/>
    <route id="297" edges="5i 1i 4o"/>
    <route id="298" edges="3i 2o"/>
    <route id="299" edges="4i 1o 5o"/>
    <route id="300" edges="5i 1i 4o"/>
    <route id="301" edges="5i 1i 4o"/>
    <route id="302" edges="7i 6o"/>
    <route id="303" edges="7i 6o"/>
    <route id="304" edges="6i 7o"/>
    <route id="305" edges="2i 3o"/>
    <route id="306" edges="4i 1o 5o"/>
    <route id="307" edges="5i 1i 4o"/>
    <route id="308" edges="4i 1o 5o"/>
    <route id="309" edges="2i 3o"/>
    <route id="310" edges="7i 6o"/>
    <route id="311" edges="2i 3o"/>
    <route id="312" edges="4i 1o 5o"/>
    <route id="313" edges="2i 3o"/>
    <route id="314" edges="7i 6o"/>
    <route id="315" edges="5i 1i 4o"/>
    <route id="316" edges="4i 1o 5o"/>
    <route id="317" edges="2i 3o"/>
    <route id="318" edges="7i 6o"/>
    <route id="319" edges="2i 3o"/>
    <route id="320" edges="6i 7o"/>
    <route id="321" edges="6i 7o"/>
    <route id="322" edges="3i 2o"/>
    <route id="323" edges="3i 2o"/>
    <route id="324" edges="7i 6o"/>
    <route id="325" edges="4i 1o 5o"/>
    <route id="326" edges="3i 2o"/>
    <route id="327" edges="4i 1o 5o"/>
    <route id="328" edges="7i 6o"/>
    <route id="329" edges="5i 1i 4o"/>
    <route id="330" edges="6i 7o"/>
    <route id="331" edges="6i 7o"/>
    <route id="332" edges="5i 1i 4o"/>
    <route id="333" edges="2i 3o"/>
    <route id="334" edges="3i 2o"/>
    <route id="335" edges="5i 1i 4o"/>
    <route id="336" edges="5i 1i 4o"/>
    <route id="337" edges="3i 2o"/>
    <route id="338" edges="7i 6o"/>
    <route id="339" edges="3i 2o"/>
    <route id="340" edges="6i 7o"/>
    <route id="341" edges="6i 7o"/>
    <route id="342" edges="7i 6o"/>
    <route id="343" edges="4i 1o 5o"/>
    <route id="344" edges="4i 1o 5o"/>
    <route id="345" edges="2i 3o"/>
    <route id="346" edges="7i 6o"/>
    <route id="347" edges="7i 6o"/>
    <route id="348" edges="3i 2o"/>
    <route id="349" edges="5i 1i 4o"/>
    <route id="350" edges="7i 6o"/>
    <route id="351" edges="7i 6o"/>
    <route id="352" edges="6i 7o"/>
    <route id="353" edges="3i 2o"/>
    <route id="354" edges="6i 7o"/>
    <route id="355" edges="7i 6o"/>
    <route id="356" edges="6i 7o"/>
    <route id="357" edges="2i 3o"/>
    <route id="358" edges="6i 7o"/>
    <route id="359" edges="4i 1o 5o"/>
    <route id="360" edges="4i 1o 5o"/>
    <route id="361" edges="7i 6o"/>
    <route id="362" edges="7i 6o"/>
    <route id="363" edges="6i 7o"/>
    <route id="364" edges="4i 1o 5o"/>
    <route id="365" edges="2i 3o"/>
    <route id="366" edges="3i 2o"/>
    <route id="367" edges="6i 7o"/>
    <route id="368" edges="7i 6o"/>
    <route id="369" edges="5i 1i 4o"/>
    <route id="370" edges="6i 7o"/>
    <route id="371" edges="7i 6o"/>
    <route id="372" edges="4i 1o 5o"/>
    <route id="373" edges="4i 1o 5o"/>
    <route id="374" edges="6i 7o"/>
    <route id="375" edges="5i 1i 4o"/>
    <route id="376" edges="7i 6o"/>

    <vehicle id="1_7" route="1" depart="7" />
    <vehicle id="2_23" route="2" depart="23" />
    <vehicle id="3_32" route="3" depart="32" />
    <vehicle id="4_42" route="4" depart="42" />
    <vehicle id="5_47" route="5" depart="47" />
    <vehicle id="6_61" route="6" depart="61" />
    <vehicle id="7_73" route="7" depart="73" />
    <vehicle id="8_85" route="8" depart="85" />
    <vehicle id="9_86" route="9" depart="86" />
    <vehicle id="10_88" route="10" depart="88" />
    <vehicle id="11_94" route="11" depart="94" />
    <vehicle id="12_108" route="12" depart="108" />
    <vehicle id="13_110" route="13" depart="110" />
    <vehicle id="14_112" route="14" depart="112" />
    <vehicle id="15_114" route="15" depart="114" />
    <vehicle id="16_126" route="16" depart="126" />
    <vehicle id="17_129" route="17" depart="129" />
    <vehicle id="18_142" route="18" depart="142" />
    <vehicle id="19_158" route="19" depart="158" />
    <vehicle id="20_164" route="20" depart="164" />
    <vehicle id="21_170" route="21" depart="170" />
    <vehicle id="22_182" route="22" depart="182" />
    <vehicle id="23_187" route="23" depart="187" />
    <vehicle id="24_197" route="24" depart="197" />
    <vehicle id="25_209" route="25" depart="209" />
    <vehicle id="26_210" route="26" depart="210" />
    <vehicle id="27_220" route="27" depart="220" />
    <vehicle id="28_225" route="28" depart="225" />
    <vehicle id="29_230" route="29" depart="230" />
    <vehicle id="30_235" route="30" depart="235" />
    <vehicle id="31_237" route="31" depart="237" />
    <vehicle id="32_238" route="32" depart="238" />
    <vehicle id="33_246" route="33" depart="246" />
    <vehicle id="34_247" route="34" depart="247" />
    <vehicle id="35_249" route="35" depart="249" />
    <vehicle id="36_264" route="36" depart="264" />
    <vehicle id="37_285" route="37" depart="285" />
    <vehicle id="38_296" route="38" depart="296" />
    <vehicle id="39_327" route="39" depart="327" />
    <vehicle id="40_346" route="40" depart="346" />
    <vehicle id="41_368" route="41" depart="368" />
    <vehicle id="42_378" route="42" depart="378" />
    <vehicle id="43_404" route="43" depart="404" />
    <vehicle id="44_408" route="44" depart="408" />
    <vehicle id="45_410" route="45" depart="410" />
    <vehicle id="46_419" route="46" depart="419" />
    <vehicle id="47_428" route="47" depart="428" />
    <vehicle id="48_432" route="48" depart="432" />
    <vehicle id="49_434" route="49" depart="434" />
    <vehicle id="50_442" route="50" depart="442" />
    <vehicle id="51_445" route="51" depart="445" />
    <vehicle id="52_447" route="52" depart="447" />
    <vehicle id="53_449" route="53" depart="449" />
    <vehicle id="54_450" route="54" depart="450" />
    <vehicle id="55_458" route="55" depart="458" />
    <vehicle id="56_461" route="56" depart="461" />
    <vehicle id="57_463" route="57" depart="463" />
    <vehicle id="58_466" route="58" depart="466" />
    <vehicle id="59_470" route="59" depart="470" />
    <vehicle id="60_475" route="60" depart="475" />
    <vehicle id="61_478" route="61" depart="478" />
    <vehicle id="62_479" route="62" depart="479" />
    <vehicle id="63_488" route="63" depart="488" />
    <vehicle id="64_489" route="64" depart="489" />
    <vehicle id="65_501" route="65" depart="501" />
    <vehicle id="66_505" route="66" depart="505" />
    <vehicle id="67_510" route="67" depart="510" />
    <vehicle id="68_512" route="68" depart="512" />
    <vehicle id="69_519" route="69" depart="519" />
    <vehicle id="70_520" route="70" depart="520" />
    <vehicle id="71_533" route="71" depart="533" />
    <vehicle id="72_546" route="72" depart="546" />
    <vehicle id="73_571" route="73" depart="571" />
    <vehicle id="74_579" route="74" depart="579" />
    <vehicle id="75_583" route="75" depart="583" />
    <vehicle id="76_599" route="76" depart="599" />
    <vehicle id="77_606" route="77" depart="606" />
    <vehicle id="78_612" route="78" depart="612" />
    <vehicle id="79_624" route="79" depart="624" />
    <vehicle id="80_625" route="80" depart="625" />
    <vehicle id="81_629" route="81" depart="629" />
    <vehicle id="82_646" route="82" depart="646" />
    <vehicle id="83_671" route="83" depart="671" />
    <vehicle id="84_673" route="84" depart="673" />
    <vehicle id="85_674" route="85" depart="674" />
    <vehicle id="86_677" route="86" depart="677" />
    <vehicle id="87_721" route="87" depart="721" />
    <vehicle id="88_722" route="88" depart="722" />
    <vehicle id="89_727" route="89" depart="727" />
    <vehicle id="90_728" route="90" depart="728" />
    <vehicle id="91_734" route="91" depart="734" />
    <vehicle id="92_743" route="92" depart="743" />
    <vehicle id="93_753" route="93" depart="753" />
    <vehicle id="94_755" route="94" depart="755" />
    <vehicle id="95_788" route="95" depart="788" />
    <vehicle id="96_793" route="96" depart="793" />
    <vehicle id="97_794" route="97" depart="794" />
    <vehicle id="98_808" route="98" depart="808" />
    <vehicle id="99_815" route="99" depart="815" />
    <vehicle id="100_836" route="100" depart="836" />
    <vehicle id="101_856" route="101" depart="856" />
    <vehicle id="102_869" route="102" depart="869" />
    <vehicle id="103_876" route="103" depart="876" />
    <vehicle id="104_877" route="104" depart="877" />
    <vehicle id="105_896" route="105" depart="896" />
    <vehicle id="106_935" route="106" depart="935" />
    <vehicle id="107_945" route="107" depart="945" />
    <vehicle id="108_952" route="108" depart="952" />
    <vehicle id="109_963" route="109" depart="963" />
    <vehicle id="110_968" route="110" depart="968" />
    <vehicle id="111_981" route="111" depart="981" />
    <vehicle id="112_984" route="112" depart="984" />
    <vehicle id="113_993" route="113" depart="993" />
    <vehicle id="114_997" route="114" depart="997" />
    <vehicle id="115_1003" route="115" depart="1003" />
    <vehicle id="116_1020" route="116" depart="1020" />
    <vehicle id="117_1054" route="117" depart="1054" />
    <vehicle id="118_1058" route="118" depart="1058" />
    <vehicle id="119_1084" route="119" depart="1084" />
    <vehicle id="120_1086" route="120" depart="1086" />
    <vehicle id="121_1089" route="121" depart="1089" />
    <vehicle id="122_1095" route="122" depart="1095" />
    <vehicle id="123_1102" route="123" depart="1102" />
    <vehicle id="124_1110" route="124" depart="1110" />
    <vehicle id="125_1114" route="125" depart="1114" />
    <vehicle id="126_1118" route="126" depart="1118" />
    <vehicle id="127_1121" route="127" depart="1121" />
    <vehicle id="128_1136" route="128" depart="1136" />
    <vehicle id="129_1176" route="129" depart="1176" />
    <vehicle id="130_1192" route="130" depart="1192" />
    <vehicle id="131_1193" route="131" depart="1193" />
    <vehicle id="132_1221" route="132" depart="1221" />
    <vehicle id="133_1244" route="133" depart="1244" />
    <vehicle id="134_1246" route="134" depart="1246" />
    <vehicle id="135_1251" route="135" depart="1251" />
    <vehicle id="136_1256" route="136" depart="1256" />
    <vehicle id="137_1273" route="137" depart="1273" />
    <vehicle id="138_1288" route="138" depart="1288" />
    <vehicle id="139_1291" route="139" depart="1291" />
    <vehicle id="140_1299" route="140" depart="1299" />
    <vehicle id="141_1307" route="141" depart="1307" />
    <vehicle id="142_1319" route="142" depart="1319" />
    <vehicle id="143_1323" route="143" depart="1323" />
    <vehicle id="144_1327" route="144" depart="1327" />
    <vehicle id="145_1329" route="145" depart="1329" />
    <vehicle id="146_1331" route="146" depart="1331" />
    <vehicle id="147_1339" route="147" depart="1339" />
    <vehicle id="148_1345" route="148" depart="1345" />
    <vehicle id="149_1361" route="149" depart="1361" />
    <vehicle id="150_1367" route="150" depart="1367" />
    <vehicle id="151_1368" route="151" depart="1368" />
    <vehicle id="152_1376" route="152" depart="1376" />
    <vehicle id="153_1386" route="153" depart="1386" />
    <vehicle id="154_1394" route="154" depart="1394" />
    <vehicle id="155_1406" route="155" depart="1406" />
    <vehicle id="156_1431" route="156" depart="1431" />
    <vehicle id="157_1441" route="157" depart="1441" />
    <vehicle id="158_1443" route="158" depart="1443" />
    <vehicle id="159_1460" route="159" depart="1460" />
    <vehicle id="160_1471" route="160" depart="1471" />
    <vehicle id="161_1492" route="161" depart="1492" />
    <vehicle id="162_1495" route="162" depart="1495" />
    <vehicle id="163_1521" route="163" depart="1521" />
    <vehicle id="164_1532" route="164" depart="1532" />
    <vehicle id="165_1533" route="165" depart="1533" />
    <vehicle id="166_1535" route="166" depart="1535" />
    <vehicle id="167_1546" route="167" depart="1546" />
    <vehicle id="168_1567" route="168" depart="1567" />
    <vehicle id="169_1575" route="169" depart="1575" />
    <vehicle id="170_1590" route="170" depart="1590" />
    <vehicle id="171_1592" route="171" depart="1592" />
    <vehicle id="172_1609" route="172" depart="1609" />
    <vehicle id="173_1626" route="173" depart="1626" />
    <vehicle id="174_1635" route="174" depart="1635" />
    <vehicle id="175_1648" route="175" depart="1648" />
    <vehicle id="176_1651" route="176" depart="1651" />
    <vehicle id="177_1658" route="177" depart="1658" />
    <vehicle id="178_1659" route="178" depart="1659" />
    <vehicle id="179_1676" route="179" depart="1676" />
    <vehicle id="180_1682" route="180" depart="1682" />
    <vehicle id="181_1690" route="181" depart="1690" />
    <vehicle id="182_1695" route="182" depart="1695" />
    <vehicle id="183_1725" route="183" depart="1725" />
    <vehicle id="184_1738" route="184" depart="1738" />
    <vehicle id="185_1744" route="185" depart="1744" />
    <vehicle id="186_1751" route="186" depart="1751" />
    <vehicle id="187_1754" route="187" depart="1754" />
    <vehicle id="188_1770" route="188" depart="1770" />
    <vehicle id="189_1778" route="189" depart="1778" />
    <vehicle id="190_1809" route="190" depart="1809" />
    <vehicle id="191_1811" route="191" depart="1811" />
    <vehicle id="192_1820" route="192" depart="1820" />
    <vehicle id="193_1825" route="193" depart="1825" />
    <vehicle id="194_1846" route="194" depart="1846" />
    <vehicle id="195_1851" route="195" depart="1851" />
    <vehicle id="196_1858" route="196" depart="1858" />
    <vehicle id="197_1870" route="197" depart="1870" />
    <vehicle id="198_1884" route="198" depart="1884" />
    <vehicle id="199_1885" route="199" depart="1885" />
    <vehicle id="200_1918" route="200" depart="1918" />
    <vehicle id="201_1940" route="201" depart="1940" />
    <vehicle id="202_1965" route="202" depart="1965" />
    <vehicle id="203_1967" route="203" depart="1967" />
    <vehicle id="204_1983" route="204" depart="1983" />
    <vehicle id="205_1985" route="205" depart="1985" />
    <vehicle id="206_1988" route="206" depart="1988" />
    <vehicle id="207_1989" route="207" depart="1989" />
    <vehicle id="208_1996" route="208" depart="1996" />
    <vehicle id="209_2016" route="209" depart="2016" />
    <vehicle id="210_2025" route="210" depart="2025" />
    <vehicle id="211_2032" route="211" depart="2032" />
    <vehicle id="212_2034" route="212" depart="2034" />
    <vehicle id="213_2048" route="213" depart="2048" />
    <vehicle id="214_2049" route="214" depart="2049" />
    <vehicle id="215_2052" route="215" depart="2052" />
    <vehicle id="216_2071" route="216" depart="2071" />
    <vehicle id="217_2077" route="217" depart="2077" />
    <vehicle id="218_2086" route="218" depart="2086" />
    <vehicle id="219_2094" route="219" depart="2094" />
    <vehicle id="220_2110" route="220" depart="2110" />
    <vehicle id="221_2117" route="221" depart="2117" />
    <vehicle id="222_2179" route="222" depart="2179" />
    <vehicle id="223_2187" route="223" depart="2187" />
    <vehicle id="224_2198" route="224" depart="2198" />
    <vehicle id="225_2201" route="225" depart="2201" />
    <vehicle id="226_2206" route="226" depart="2206" />
    <vehicle id="227_2209" route="227" depart="2209" />
    <vehicle id="228_2213" route="228" depart="2213" />
    <vehicle id="229_2222" route="229" depart="2222" />
    <vehicle id="230_2248" route="230" depart="2248" />
    <vehicle id="231_2263" route="231" depart="2263" />
    <vehicle id="232_2270" route="232" depart="2270" />
    <vehicle id="233_2275" route="233" depart="2275" />
    <vehicle id="234_2276" route="234" depart="2276" />
    <vehicle id="235_2278" route="235" depart="2278" />
    <vehicle id="236_2285" route="236" depart="2285" />
    <vehicle id="237_2290" route="237" depart="2290" />
    <vehicle id="238_2306" route="238" depart="2306" />
    <vehicle id="239_2307" route="239" depart="2307" />
    <vehicle id="240_2311" route="240" depart="2311" />
    <vehicle id="241_2315" route="241" depart="2315" />
    <vehicle id="242_2327" route="242" depart="2327" />
    <vehicle id="243_2339" route="243" depart="2339" />
    <vehicle id="244_2351" route="244" depart="2351" />
    <vehicle id="245_2365" route="245" depart="2365" />
    <vehicle id="246_2369" route="246" depart="2369" />
    <vehicle id="247_2373" route="247" depart="2373" />
    <vehicle id="248_2387" route="248" depart="2387" />
    <vehicle id="249_2393" route="249" depart="2393" />
    <vehicle id="250_2395" route="250" depart="2395" />
    <vehicle id="251_2402" route="251" depart="2402" />
    <vehicle id="252_2403" route="252" depart="2403" />
    <vehicle id="253_2426" route="253" depart="2426" />
    <vehicle id="254_2427" route="254" depart="2427" />
    <vehicle id="255_2440" route="255" depart="2440" />
    <vehicle id="256_2441" route="256" depart="2441" />
    <vehicle id="257_2444" route="257" depart="2444" />
    <vehicle id="258_2457" route="258" depart="2457" />
    <vehicle id="259_2467" route="259" depart="2467" />
    <vehicle id="260_2477" route="260" depart="2477" />
    <vehicle id="261_2478" route="261" depart="2478" />
    <vehicle id="262_2481" route="262" depart="2481" />
    <vehicle id="263_2499" route="263" depart="2499" />
    <vehicle id="264_2506" route="264" depart="2506" />
    <vehicle id="265_2512" route="265" depart="2512" />
    <vehicle id="266_2528" route="266" depart="2528" />
    <vehicle id="267_2534" route="267" depart="2534" />
    <vehicle id="268_2543" route="268" depart="2543" />
    <vehicle id="269_2547" route="269" depart="2547" />
    <vehicle id="270_2550" route="270" depart="2550" />
    <vehicle id="271_2564" route="271" depart="2564" />
    <vehicle id="272_2575" route="272" depart="2575" />
    <vehicle id="273_2583" route="273" depart="2583" />
    <vehicle id="274_2584" route="274" depart="2584" />
    <vehicle id="275_2598" route="275" depart="2598" />
    <vehicle id="276_2616" route="276" depart="2616" />
    <vehicle id="277_2629" route="277" depart="2629" />
    <vehicle id="278_2661" route="278" depart="2661" />
    <vehicle id="279_2669" route="279" depart="2669" />
    <vehicle id="280_2670" route="280" depart="2670" />
    <vehicle id="281_2678" route="281" depart="2678" />
    <vehicle id="282_2689" route="282" depart="2689" />
    <vehicle id="283_2705" route="283" depart="2705" />
    <vehicle id="284_2715" route="284" depart="2715" />
    <vehicle id="285_2722" route="285" depart="2722" />
    <vehicle id="286_2731" route="286" depart="2731" />
    <vehicle id="287_2754" route="287" depart="2754" />
    <vehicle id="288_2756" route="288" depart="2756" />
    <vehicle id="289_2764" route="289" depart="2764" />
    <vehicle id="290_2788" route="290" depart="2788" />
    <vehicle id="291_2802" route="291" depart="2802" />
    <vehicle id="292_2810" route="292" depart="2810" />
    <vehicle id="293_2829" route="293" depart="2829" />
    <vehicle id="294_2832" route="294" depart="2832" />
    <vehicle id="295_2836" route="295" depart="2836" />
    <vehicle id="296_2844" route="296" depart="2844" />
    <vehicle id="297_2845" route="297" depart="2845" />