<routes>

    <route id="1" edges="5i 1i 4o"/>
    <route id="2" edges="3i 2o"/>
    <route id="3" edges="5i 1i 4o"/>
    <route id="4" edges="2i 3o"/>
    <route id="5" edges="6i 7o"/>
    <route id="6" edges="6i 7o"/>
    <route id="7" edges="2i 3o"/>
    <route id="8" edges="5i 1i 4o"/>
    <route id="9" edges="5i 1i 4o"/>
    <route id="10" edges="2i 3o"/>
    <route id="11" edges="7i 6o"/>
    <route id="12" edges="3i 2o"/>
    <route id="13" edges="6i 7o"/>
    <route id="14" edges="3i 2o"/>
    <route id="15" edges="5i 1i 4o"/>
    <route id="16" edges="2i 3o"/>
    <route id="17" edges="3i 2o"/>
    <route id="18" edges="6i 7o"/>
    <route id="19" edges="5i 1i 4o"/>
    <route id="20" edges="4i 1o 5o"/>
    <route id="21" edges="4i 1o 5o"/>
    <route id="22" edges="3i 2o"/>
    <route id="23" edges="4i 1o 5o"/>
    <route id="24" edges="3i 2o"/>
    <route id="25" edges="4i 1o 5o"/>
    <route id="26" edges="2i 3o"/>
    <route id="27" edges="4i 1o 5o"/>
    <route id="28" edges="3i 2o"/>
    <route id="29" edges="4i 1o 5o"/>
    <route id="30" edges="6i 7o"/>
    <route id="31" edges="7i 6o"/>
    <route id="32" edges="5i 1i 4o"/>
    <route id="33" edges="4i 1o 5o"/>
    <route id="34" edges="4i 1o 5o"/>
    <route id="35" edges="3i 2o"/>
    <route id="36" edges="2i 3o"/>
    <route id="37" edges="7i 6o"/>
    <route id="38" edges="5i 1i 4o"/>
    <route id="39" edges="6i 7o"/>
    <route id="40" edges="2i 3o"/>
    <route id="41" edges="3i 2o"/>
    <route id="42" edges="4i 1o 5o"/>
    <route id="43" edges="2i 3o"/>
    <route id="44" edges="7i 6o"/>
    <route id="45" edges="4i 1o 5o"/>
    <route id="46" edges="7i 6o"/>
    <route id="47" edges="7i 6o"/>
    <route id="48" edges="7i 6o"/>
    <route id="49" edges="7i 6o"/>
    <route id="50" edges="6i 7o"/>
    <route id="51" edges="6i 7o"/>
    <route id="52" edges="4i 1o 5o"/>
    <route id="53" edges="3i 2o"/>
    <route id="54" edges="5i 1i 4o"/>
    <route id="55" edges="7i 6o"/>
    <route id="56" edges="5i 1i 4o"/>
    <route id="57" edges="3i 2o"/>
    <route id="58" edges="4i 1o 5o"/>
    <route id="59" edges="6i 7o"/>
    <route id="60" edges="6i 7o"/>
    <route id="61" edges="2i 3o"/>
    <route id="62" edges="6i 7o"/>
    <route id="63" edges="5i 1i 4o"/>
    <route id="64" edges="3i 2o"/>
    <route id="65" edges="6i 7o"/>
    <route id="66" edges="3i 2o"/>
    <route id="67" edges="6i 7o"/>
    <route id="68" edges="3i 2o"/>
    <route id="69" edges="4i 1o 5o"/>
    <route id="70" edges="3i 2o"/>
    <route id="71" edges="5i 1i 4o"/>
    <route id="72" edges="2i 3o"/>
    <route id="73" edges="4i 1o 5o"/>
    <route id="74" edges="3i 2o"/>
    <route id="75" edges="2i 3o"/>
    <route id="76" edges="2i 3o"/>
    <route id="77" edges="2i 3o"/>
    <route id="78" edges="4i 1o 5o"/>
    <route id="79" edges="6i 7o"/>
    <route id="80" edges="2i 3o"/>
    <route id="81" edges="7i 6o"/>
    <route id="82" edges="2i 3o"/>
    <route id="83" edges="4i 1o 5o"/>
    <route id="84" edges="2i 3o"/>
    <route id="85" edges="3i 2o"/>
    <route id="86" edges="5i 1i 4o"/>
    <route id="87" edges="5i 1i 4o"/>
    <route id="88" edges="6i 7o"/>
    <route id="89" edges="4i 1o 5o"/>
    <route id="90" edges="7i 6o"/>
    <route id="91" edges="5i 1i 4o"/>
    <route id="92" edges="4i 1o 5o"/>
    <route id="93" edges="6i 7o"/>
    <route id="94" edges="7i 6o"/>
    <route id="95" edges="5i 1i 4o"/>
    <route id="96" edges="7i 6o"/>
    <route id="97" edges="7i 6o"/>
    <route id="98" edges="7i 6o"/>
    <route id="99" edges="3i 2o"/>
    <route id="100" edges="4i 1o 5o"/>
    <route id="101" edges="5i 1i 4o"/>
    <route id="102" edges="6i 7o"/>
    <route id="103" edges="7i 6o"/>
    <route id="104" edges="7i 6o"/>
    <route id="105" edges="2i 3o"/>
    <route id="106" edges="2i 3o"/>
    <route id="107" edges="5i 1i 4o"/>
    <route id="108" edges="6i 7o"/>
    <route id="109" edges="3i 2o"/>
    <route id="110" edges="7i 6o"/>
    <route id="111" edges="3i 2o"/>
    <route id="112" edges="2i 3o"/>
    <route id="113" edges="2i 3o"/>
    <route id="114" edges="5i 1i 4o"/>
    <route id="115" edges="4i 1o 5o"/>
    <route id="116" edges="5i 1i 4o"/>
    <route id="117" edges="7i 6o"/>
    <route id="118" edges="5i 1i 4o"/>
    <route id="119" edges="6i 7o"/>
    <route id="120" edges="4i 1o 5o"/>
    <route id="121" edges="2i 3o"/>
    <route id="122" edges="6i 7o"/>
    <route id="123" edges="7i 6o"/>
    <route id="124" edges="2i 3o"/>
    <route id="125" edges="5i 1i 4o"/>
    <route id="126" edges="3i 2o"/>
    <route id="127" edges="4i 1o 5o"/>
    <route id="128" edges="6i 7o"/>
    <route id="129" edges="6i 7o"/>
    <route id="130" edges="5i 1i 4o"/>
    <route id="131" edges="7i 6o"/>
    <route id="132" edges="4i 1o 5o"/>
    <route id="133" edges="3i 2o"/>
    <route id="134" edges="3i 2o"/>
    <route id="135" edges="3i 2o"/>
    <route id="136" edges="7i 6o"/>
    <route id="137" edges="6i 7o"/>
    <route id="138" edges="4i 1o 5o"/>
    <route id="139" edges="3i 2o"/>
    <route id="140" edges="5i 1i 4o"/>
    <route id="141" edges="7i 6o"/>
    <route id="142" edges="6i 7o"/>
    <route id="143" edges="7i 6o"/>
    <route id="144" edges="5i 1i 4o"/>
    <route id="145" edges="5i 1i 4o"/>
    <route id="146" edges="6i 7o"/>
    <route id="147" edges="5i 1i 4o"/>
    <route id="148" edges="3i 2o"/>
    <route id="149" edges="3i 2o"/>
    <route id="150" edges="7i 6o"/>
    <route id="151" edges="5i 1i 4o"/>
    <route id="152" edges="2i 3o"/>
    <route id="153" edges="3i 2o"/>
    <route id="154" edges="7i 6o"/>
    <route id="155" edges="2i 3o"/>
    <route id="156" edges="2i 3o"/>
    <route id="157" edges="2i 3o"/>
    <route id="158" edges="7i 6o"/>
    <route id="159" edges="3i 2o"/>
    <route id="160" edges="6i 7o"/>
    <route id="161" edges="6i 7o"/>
    <route id="162" edges="7i 6o"/>
    <route id="163" edges="5i 1i 4o"/>
    <route id="164" edges="2i 3o"/>
    <route id="165" edges="6i 7o"/>
    <route id="166" edges="2i 3o"/>
    <route id="167" edges="3i 2o"/>
    <route id="168" edges="3i 2o"/>
    <route id="169" edges="6i 7o"/>
    <route id="170" edges="4i 1o 5o"/>
    <route id="171" edges="2i 3o"/>
    <route id="172" edges="6i 7o"/>
    <route id="173" edges="5i 1i 4o"/>
    <route id="174" edges="3i 2o"/>
    <route id="175" edges="6i 7o"/>
    <route id="176" edges="2i 3o"/>
    <route id="177" edges="5i 1i 4o"/>
    <route id="178" edges="3i 2o"/>
    <route id="179" edges="5i 1i 4o"/>
    <route id="180" edges="6i 7o"/>
    <route id="181" edges="6i 7o"/>
    <route id="182" edges="6i 7o"/>
    <route id="183" edges="5i 1i 4o"/>
    <route id="184" edges="3i 2o"/>
    <route id="185" edges="4i 1o 5o"/>
    <route id="186" edges="3i 2o"/>
    <route id="187" edges="2i 3o"/>
    <route id="188" edges="7i 6o"/>
    <route id="189" edges="2i 3o"/>
    <route id="190" edges="4i 1o 5o"/>
    <route id="191" edges="3i 2o"/>
    <route id="192" edges="4i 1o 5o"/>
    <route id="193" edges="5i 1i 4o"/>
    <route id="194" edges="4i 1o 5o"/>
    <route id="195" edges="4i 1o 5o"/>
    <route id="196" edges="3i 2o"/>
    <route id="197" edges="3i 2o"/>
    <route id="198" edges="7i 6o"/>
    <route id="199" edges="7i 6o"/>
    <route id="200" edges="6i 7o"/>
    <route id="201" edges="3i 2o"/>
    <route id="202" edges="4i 1o 5o"/>
    <route id="203" edges="3i 2o"/>
    <route id="204" edges="5i 1i 4o"/>
    <route id="205" edges="3i 2o"/>
    <route id="206" edges="2i 3o"/>
    <route id="207" edges="5i 1i 4o"/>
    <route id="208" edges="4i 1o 5o"/>
    <route id="209" edges="5i 1i 4o"/>
    <route id="210" edges="7i 6o"/>
    <route id="211" edges="6i 7o"/>
    <route id="212" edges="2i 3o"/>
    <route id="213" edges="7i 6o"/>
    <route id="214" edges="2i 3o"/>
    <route id="215" edges="5i 1i 4o"/>
    <route id="216" edges="5i 1i 4o"/>
    <route id="217" edges="4i 1o 5o"/>
    <route id="218" edges="3i 2o"/>
    <route id="219" edges="6i 7o"/>
    <route id="220" edges="6i 7o"/>
    <route id="221" edges="2i 3o"/>
    <route id="222" edges="7i 6o"/>
    <route id="223" edges="7i 6o"/>
    <route id="224" edges="3i 2o"/>
    <route id="225" edges="5i 1i 4o"/>
    <route id="226" edges="7i 6o"/>
    <route id="227" edges="3i 2o"/>
    <route id="228" edges="6i 7o"/>
    <route id="229" edges="3i 2o"/>
    <route id="230" edges="4i 1o 5o"/>
    <route id="231" edges="5i 1i 4o"/>
    <route id="232" edges="7i 6o"/>
    <route id="233" edges="5i 1i 4o"/>
    <route id="234" edges="7i 6o"/>
    <route id="235" edges="2i 3o"/>
    <route id="236" edges="7i 6o"/>
    <route id="237" edges="5i 1i 4o"/>
    <route id="238" edges="6i 7o"/>
    <route id="239" edges="5i 1i 4o"/>
    <route id="240" edges="4i 1o 5o"/>
    <route id="241" edges="2i 3o"/>
    <route id="242" edges="6i 7o"/>
    <route id="243" edges="5i 1i 4o"/>
    <route id="244" edges="7i 6o"/>
    <route id="245" edges="3i 2o"/>
    <route id="246" edges="7i 6o"/>
    <route id="247" edges="5i 1i 4o"/>
    <route id="248" edges="7i 6o"/>
    <route id="249" edges="3i 2o"/>
    <route id="250" edges="5i 1i 4o"/>
    <route id="251" edges="6i 7o"/>
    <route id="252" edges="2i 3o"/>
    <route id="253" edges="6i 7o"/>
    <route id="254" edges="7i 6o"/>
    <route id="255" edges="3i 2o"/>
    <route id="256" edges="5i 1i 4o"/>
    <route id="257" edges="2i 3o"/>
    <route id="258" edges="4i 1o 5o"/>
    <route id="259" edges="5i 1i 4o"/>
    <route id="260" edges="3i 2o"/>
    <route id="261" edges="6i 7o"/>
    <route id="262" edges="6i 7o"/>
    <route id="263" edges="7i 6o"/>
    <route id="264" edges="7i 6o"/>
    <route id="265" edges="3i 2o"/>
    <route id="266" edges="7i 6o"/>
    <route id="267" edges="4i 1o 5o"/>
    <route id="268" edges="2i 3o"/>
    <route id="269" edges="2i 3o"/>
    <route id="270" edges="2i 3o"/>
    <route id="271" edges="4i 1o 5o"/>
    <route id="272" edges="3i 2o"/>
    <route id="273" edges="3i 2o"/>
    <route id="274" edges="4i 1o 5o"/>
    <route id="275" edges="2i 3o"/>
    <route id="276" edges="6i 7o"/>
    <route id="277" edges="5i 1i 4o"/>
    <route id="278" edges="7i 6o"/>
    <route id="279" edges="3i 2o"/>
    <route id="280" edges="3i 2o"/>
    <route id="281" edges="7i 6o"/>
    <route id="282" edges="5i 1i 4o"/>
    <route id="283" edges="3i 2o"/>
    <route id="284" edges="2i 3o"/>
    <route id="285" edges="3i 2o"/>
    <route id="286" edges="7i 6o"/>
    <route id="287" edges="2i 3o"/>
    <route id="288" edges="3i 2o"/>
    <route id="289" edges="6i 7o"/>
    <route id="290" edges="4i 1o 5o"/>
    <route id="291" edges="3i 2o"/>
    <route id="292" edges="4i 1o 5o"/>
    <route id="293" edges="6i 7o"/>
    <route id="294" edges="5i 1i 4o"/>
    <route id="295" edges="6i 7o"/>
    <route id="296" edges="4i 1o 5o"/>
    <route id="297" edges="5i 1i 4o"/>
    <route id="298" edges="7i 6o"/>
    <route id="299" edges="6i 7o"/>
    <route id="300" edges="3i 2o"/>
    <route id="301" edges="6i 7o"/>
    <route id="302" edges="5i 1i 4o"/>
    <route id="303" edges="5i 1i 4o"/>
    <route id="304" edges="4i 1o 5o"/>
    <route id="305" edges="5i 1i 4o"/>
    <route id="306" edges="5i 1i 4o"/>
    <route id="307" edges="3i 2o"/>
    <route id="308" edges="5i 1i 4o"/>
    <route id="309" edges="5i 1i 4o"/>
    <route id="310" edges="5i 1i 4o"/>
    <route id="311" edges="3i 2o"/>
    <route id="312" edges="3i 2o"/>
    <route id="313" edges="4i 1o 5o"/>
    <route id="314" edges="3i 2o"/>
    <route id="315" edges="7i 6o"/>
    <route id="316" edges="2i 3o"/>
    <route id="317" edges="2i 3o"/>
    <route id="318" edges="2i 3o"/>
    <route id="319" edges="2i 3o"/>
    <route id="320" edges="3i 2o"/>
    <route id="321" edges="6i 7o"/>
    <route id="322" edges="7i 6o"/>
    <route id="323" edges="7i 6o"/>
    <route id="324" edges="3i 2o"/>
    <route id="325" edges="4i 1o 5o"/>
    <route id="326" edges="5i 1i 4o"/>
    <route id="327" edges="3i 2o"/>
    <route id="328" edges="7i 6o"/>
    <route id="329" edges="6i 7o"/>
    <route id="330" edges="2i 3o"/>
    <route id="331" edges="4i 1o 5o"/>
    <route id="332" edges="2i 3o"/>
    <route id="333" edges="2i 3o"/>
    <route id="334" edges="4i 1o 5o"/>

    <vehicle id="1_1" route="1" depart="1" />
    <vehicle id="2_6" route="2" depart="6" />
    <vehicle id="3_35" route="3" depart="35" />
    <vehicle id="4_47" route="4" depart="47" />
    <vehicle id="5_53" route="5" depart="53" />
    <vehicle id="6_57" route="6" depart="57" />
    <vehicle id="7_75" route="7" depart="75" />
    <vehicle id="8_84" route="8" depart="84" />
    <vehicle id="9_88" route="9" depart="88" />
    <vehicle id="10_93" route="10" depart="93" />
    <vehicle id="11_115" route="11" depart="115" />
    <vehicle id="12_123" route="12" depart="123" />
    <vehicle id="13_150" route="13" depart="150" />
    <vehicle id="14_156" route="14" depart="156" />
    <vehicle id="15_169" route="15" depart="169" />
    <vehicle id="16_173" route="16" depart="173" />
    <vehicle id="17_176" route="17" depart="176" />
    <vehicle id="18_183" route="18" depart="183" />
    <vehicle id="19_190" route="19" depart="190" />
    <vehicle id="20_191" route="20" depart="191" />
    <vehicle id="21_203" route="21" depart="203" />
    <vehicle id="22_206" route="22" depart="206" />
    <vehicle id="23_209" route="23" depart="209" />
    <vehicle id="24_219" route="24" depart="219" />
    <vehicle id="25_221" route="25" depart="221" />
    <vehicle id="26_228" route="26" depart="228" />
    <vehicle id="27_231" route="27" depart="231" />
    <vehicle id="28_269" route="28" depart="269" />
    <vehicle id="29_278" route="29" depart="278" />
    <vehicle id="30_317" route="30" depart="317" />
    <vehicle id="31_364" route="31" depart="364" />
    <vehicle id="32_383" route="32" depart="383" />
    <vehicle id="33_396" route="33" depart="396" />
    <vehicle id="34_399" route="34" depart="399" />
    <vehicle id="35_412" route="35" depart="412" />
    <vehicle id="36_439" route="36" depart="439" />
    <vehicle id="37_447" route="37" depart="447" />
    <vehicle id="38_451" route="38" depart="451" />
    <vehicle id="39_475" route="39" depart="475" />
    <vehicle id="40_481" route="40" depart="481" />
    <vehicle id="41_501" route="41" depart="501" />
    <vehicle id="42_523" route="42" depart="523" />
    <vehicle id="43_546" route="43" depart="546" />
    <vehicle id="44_547" route="44" depart="547" />
    <vehicle id="45_553" route="45" depart="553" />
    <vehicle id="46_561" route="46" depart="561" />
    <vehicle id="47_563" route="47" depart="563" />
    <vehicle id="48_571" route="48" depart="571" />
    <vehicle id="49_587" route="49" depart="587" />
    <vehicle id="50_597" route="50" depart="597" />
    <vehicle id="51_617" route="51" depart="617" />
    <vehicle id="52_630" route="52" depart="630" />
    <vehicle id="53_635" route="53" depart="635" />
    <vehicle id="54_654" route="54" depart="654" />
    <vehicle id="55_661" route="55" depart="661" />
    <vehicle id="56_662" route="56" depart="662" />
    <vehicle id="57_676" route="57" depart="676" />
    <vehicle id="58_678" route="58" depart="678" />
    <vehicle id="59_679" route="59" depart="679" />
    <vehicle id="60_684" route="60" depart="684" />
    <vehicle id="61_696" route="61" depart="696" />
    <vehicle id="62_697" route="62" depart="697" />
    <vehicle id="63_705" route="63" depart="705" />
    <vehicle id="64_707" route="64" depart="707" />
    <vehicle id="65_716" route="65" depart="716" />
    <vehicle id="66_718" route="66" depart="718" />
    <vehicle id="67_725" route="67" depart="725" />
    <vehicle id="68_738" route="68" depart="738" />
    <vehicle id="69_756" route="69" depart="756" />
    <vehicle id="70_776" route="70" depart="776" />
    <vehicle id="71_783" route="71" depart="783" />
    <vehicle id="72_784" route="72" depart="784" />
    <vehicle id="73_795" route="73" depart="795" />
    <vehicle id="74_810" route="74" depart="810" />
    <vehicle id="75_819" route="75" depart="819" />
    <vehicle id="76_832" route="76" depart="832" />
    <vehicle id="77_863" route="77" depart="863" />
    <vehicle id="78_875" route="78" depart="875" />
    <vehicle id="79_884" route="79" depart="884" />
    <vehicle id="80_905" route="80" depart="905" />
    <vehicle id="81_909" route="81" depart="909" />
    <vehicle id="82_918" route="82" depart="918" />
    <vehicle id="83_933" route="83" depart="933" />
    <vehicle id="84_949" route="84" depart="949" />
    <vehicle id="85_950" route="85" depart="950" />
    <vehicle id="86_954" route="86" depart="954" />
    <vehicle id="87_960" route="87" depart="960" />
    <vehicle id="88_998" route="88" depart="998" />
    <vehicle id="89_1003" route="89" depart="1003" />
    <vehicle id="90_1005" route="90" depart="1005" />
    <vehicle id="91_1007" route="91" depart="1007" />
    <vehicle id="92_1010" route="92" depart="1010" />
    <vehicle id="93_1043" route="93" depart="1043" />
    <vehicle id="94_1052" route="94" depart="1052" />
    <vehicle id="95_1053" route="95" depart="1053" />
    <vehicle id="96_1058" route="96" depart="1058" />
    <vehicle id="97_1060" route="97" depart="1060" />
    <vehicle id="98_1064" route="98" depart="1064" />
    <vehicle id="99_1083" route="99" depart="1083" />
    <vehicle id="100_1085" route="100" depart="1085" />
    <vehicle id="101_1089" route="101" depart="1089" />
    <vehicle id="102_1097" route="102" depart="1097" />
    <vehicle id="103_1162" route="103" depart="1162" />
    <vehicle id="104_1171" route="104" depart="1171" />
    <vehicle id="105_1172" route="105" depart="1172" />
    <vehicle id="106_1178" route="106" depart="1178" />
    <vehicle id="107_1208" route="107" depart="1208" />
    <vehicle id="108_1215" route="108" depart="1215" />
    <vehicle id="109_1246" route="109" depart="1246" />
    <vehicle id="110_1248" route="110" depart="1248" />
    <vehicle id="111_1268" route="111" depart="1268" />
    <vehicle id="112_1273" route="112" depart="1273" />
    <vehicle id="113_1279" route="113" depart="1279" />
    <vehicle id="114_1319" route="114" depart="1319" />
    <vehicle id="115_1340" route="115" depart="1340" />
    <vehicle id="116_1348" route="116" depart="1348" />
    <vehicle id="117_1359" route="117" depart="1359" />
    <vehicle id="118_1368" route="118" depart="1368" />
    <vehicle id="119_1380" route="119" depart="1380" />
    <vehicle id="120_1399" route="120" depart="1399" />
    <vehicle id="121_1415" route="121" depart="1415" />
    <vehicle id="122_1422" route="122" depart="1422" />
    <vehicle id="123_1423" route="123" depart="1423" />
    <vehicle id="124_1433" route="124" depart="1433" />
    <vehicle id="125_1435" route="125" depart="1435" />
    <vehicle id="126_1437" route="126" depart="1437" />
    <vehicle id="127_1440" route="127" depart="1440" />
    <vehicle id="128_1444" route="128" depart="1444" />
    <vehicle id="129_1455" route="129" depart="1455" />
    <vehicle id="130_1462" route="130" depart="1462" />
    <vehicle id="131_1465" route="131" depart="1465" />
    <vehicle id="132_1467" route="132" depart="1467" />
    <vehicle id="133_1468" route="133" depart="1468" />
    <vehicle id="134_1472" route="134" depart="1472" />
    <vehicle id="135_1489" route="135" depart="1489" />
    <vehicle id="136_1507" route="136" depart="1507" />
    <vehicle id="137_1509" route="137" depart="1509" />
    <vehicle id="138_1510" route="138" depart="1510" />
    <vehicle id="139_1529" route="139" depart="1529" />
    <vehicle id="140_1542" route="140" depart="1542" />
    <vehicle id="141_1553" route="141" depart="1553" />
    <vehicle id="142_1557" route="142" depart="1557" />
    <vehicle id="143_1561" route="143" depart="1561" />
    <vehicle id="144_1584" route="144" depart="1584" />
    <vehicle id="145_1590" route="145" depart="1590" />
    <vehicle id="146_1592" route="146" depart="1592" />
    <vehicle id="147_1607" route="147" depart="1607" />
    <vehicle id="148_1609" route="148" depart="1609" />
    <vehicle id="149_1622" route="149" depart="1622" />
    <vehicle id="150_1651" route="150" depart="1651" />
    <vehicle id="151_1658" route="151" depart="1658" />
    <vehicle id="152_1668" route="152" depart="1668" />
    <vehicle id="153_1669" route="153" depart="1669" />
    <vehicle id="154_1720" route="154" depart="1720" />
    <vehicle id="155_1749" route="155" depart="1749" />
    <vehicle id="156_1766" route="156" depart="1766" />
    <vehicle id="157_1774" route="157" depart="1774" />
    <vehicle id="158_1782" route="158" depart="1782" />
    <vehicle id="159_1797" route="159" depart="1797" />
    <vehicle id="160_1798" route="160" depart="1798" />
    <vehicle id="161_1800" route="161" depart="1800" />
    <vehicle id="162_1846" route="162" depart="1846" />
    <vehicle id="163_1847" route="163" depart="1847" />
    <vehicle id="164_1848" route="164" depart="1848" />
    <vehicle id="165_1885" route="165" depart="1885" />
    <vehicle id="166_1886" route="166" depart="1886" />
    <vehicle id="167_1893" route="167" depart="1893" />
    <vehicle id="168_1902" route="168" depart="1902" />
    <vehicle id="169_1917" route="169" depart="1917" />
    <vehicle id="170_1919" route="170" depart="1919" />
    <vehicle id="171_1922" route="171" depart="1922" />
    <vehicle id="172_1939" route="172" depart="1939" />
    <vehicle id="173_1953" route="173" depart="1953" />
    <vehicle id="174_1955" route="174" depart="1955" />
    <vehicle id="175_1959" route="175" depart="1959" />
    <vehicle id="176_1964" route="176" depart="1964" />
    <vehicle id="177_1973" route="177" depart="1973" />
    <vehicle id="178_1981" route="178" depart="1981" />
    <vehicle id="179_1982" route="179" depart="1982" />
    <vehicle id="180_2012" route="180" depart="2012" />
    <vehicle id="181_2017" route="181" depart="2017" />
    <vehicle id="182_2018" route="182" depart="2018" />
    <vehicle id="183_2029" route="183" depart="2029" />
    <vehicle id="184_2084" route="184" depart="2084" />
    <vehicle id="185_2095" route="185" depart="2095" />
    <vehicle id="186_2097" route="186" depart="2097" />
    <vehicle id="187_2102" route="187" depart="2102" />
    <vehicle id="188_2116" route="188" depart="2116" />
    <vehicle id="189_2121" route="189" depart="2121" />
    <vehicle id="190_2135" route="190" depart="2135" />
    <vehicle id="191_2140" route="191" depart="2140" />
    <vehicle id="192_2142" route="192" depart="2142" />
    <vehicle id="193_2143" route="193" depart="2143" />
    <vehicle id="194_2145" route="194" depart="2145" />
    <vehicle id="195_2146" route="195" depart="2146" />
    <vehicle id="196_2153" route="196" depart="2153" />
    <vehicle id="197_2169" route="197" depart="2169" />
    <vehicle id="198_2193" route="198" depart="2193" />
    <vehicle id="199_2198" route="199" depart="2198" />
    <vehicle id="200_2200" route="200" depart="2200" />
    <vehicle id="201_2227" route="201" depart="2227" />
    <vehicle id="202_2230" route="202" depart="2230" />
    <vehicle id="203_2231" route="203" depart="2231" />
    <vehicle id="204_2238" route="204" depart="2238" />
    <vehicle id="205_2241" route="205" depart="2241" />
    <vehicle id="206_2249" route="206" depart="2249" />
    <vehicle id="207_2263" route="207" depart="2263" />
    <vehicle id="208_2280" route="208" depart="2280" />
    <vehicle id="209_2294" route="209" depart="2294" />
    <vehicle id="210_2316" route="210" depart="2316" />
    <vehicle id="211_2319" route="211" depart="2319" />
    <vehicle id="212_2349" route="212" depart="2349" />
    <vehicle id="213_2355" route="213" depart="2355" />
    <vehicle id="214_2362" route="214" depart="2362" />
    <vehicle id="215_2370" route="215" depart="2370" />
    <vehicle id="216_2371" route="216" depart="2371" />
    <vehicle id="217_2375" route="217" depart="2375" />
    <vehicle id="218_2378" route="218" depart="2378" />
    <vehicle id="219_2379" route="219" depart="2379" />
    <vehicle id="220_2383" route="220" depart="2383" />
    <vehicle id="221_2384" route="221" depart="2384" />
    <vehicle id="222_2385" route="222" depart="2385" />
    <vehicle id="223_2406" route="223" depart="2406" />
    <vehicle id="224_2411" route="224" depart="2411" />
    <vehicle id="225_2466" route="225" depart="2466" />
    <vehicle id="226_2469" route="226" depart="2469" />
    <vehicle id="227_2470" route="227" depart="2470" />
    <vehicle id="228_2483" route="228" depart="2483" />
    <vehicle id="229_2503" route="229" depart="2503" />
    <vehicle id="230_2526" route="230" depart="2526" />
    <vehicle id="231_2530" route="231" depart="2530" />
    <vehicle id="232_2592" route="232" depart="2592" />
    <vehicle id="233_2594" route="233" depart="2594" />
    <vehicle id="234_2595" route="234" depart="2595" />
    <vehicle id="235_2605" route="235" depart="2605" />
    <vehicle id="236_2610" route="236" depart="2610" />
    <vehicle id="237_2613" route="237" depart="2613" />
    <vehicle id="238_2630" route="238" depart="2630" />
    <vehicle id="239_2640" route="239" depart="2640" />
    <vehicle id="240_2650" route="240" depart="2650" />
    <vehicle id="241_2657" route="241" depart="2657" />
    <vehicle id="242_2672" route="242" depart="2672" />
    <vehicle id="243_2712" route="243" depart="2712" />
    <vehicle id="244_2717" route="244" depart="2717" />
    <vehicle id="245_2719" route="245" depart="2719" />
    <vehicle id="246_2723" route="246" depart="2723" />
    <vehicle id="247_2724" route="247" depart="2724" />
    <vehicle id="248_2730" route="248" depart="2730" />
    <vehicle id="249_2740" route="249" depart="2740" />
    <vehicle id="250_2744" route="250" depart="2744" />
    <vehicle id="251_2754" route="251" depart="2754" />
    <vehicle id="252_2759" route="252" depart="2759" />
    <vehicle id="253_2764" route="253" depart="2764" />
    <vehicle id="254_2770" route="254" depart="2770" />
    <vehicle id="255_2774" route="255" depart="2774" />
    <vehicle id="256_2777" route="256" depart="2777" />
    <vehicle id="257_2807" route="257" depart="2807" />
    <vehicle id="258_2818" route="258" depart="2818" />
    <vehicle id="259_2826" route="259" depart="2826" />
    <vehicle id="260_2827" route="260" depart="2827" />
    <vehicle id="261_2837" route="261" depart="2837" />
    <vehicle id="262_2844" route="262" depart="2844" />
    <vehicle id="263_2848" route="263" depart="2848" />
    <vehicle id="264_2850" route="264" depart="2850" />
    <vehicle id="265_2882" route="265" depart="2882" />
    <vehicle id="266_2896" route="266" depart="2896" />
    <vehicle id="267_2942" route="267" depart="2942" />
    <vehicle id="268_2966" route="268" depart="2966" />
    <vehicle id="269_2970" route="269" depart="2970" />
    <vehicle id="270_2997" route="270" depart="2997" />
    <vehicle id="271_3025" route="271" depart="3025" />
    <vehicle id="272_3049" route="272" depart="3049" />
    <vehicle id="273_3052" route="273" depart="3052" />
    <vehicle id="274_3053" route="274" depart="3053" />
    <vehicle id="275_3055" route="275" depart="3055" />
    <vehicle id="276_3103" route="276" depart="3103" />
    <vehicle id="277_3111" route="277" depart="3111" />
    <vehicle id="278_3114" route="278" depart="3114" />
    <vehicle id="279_3117" route="279" depart="3117" />
    <vehicle id="280_3119" route="280" depart="3119" />
    <vehicle id="281_3120" route="281" depart="3120" />
    <vehicle id="282_3144" route="282" depart="3144" />
    <vehicle id="283_3150" route="283" depart="3150" />
    <vehicle id="284_3187" route="284" depart="3187" />
    <vehicle id="285_3190" route="285" depart="3190" />
    <vehicle id="286_3193" route="286" depart="3193" />
    <vehicle id="287_3205" route="287" depart="3205" />
    <vehicle id="288_3215" route="288" depart="3215" />
    <vehicle id="289_3219" route="289" depart="3219" />
    <vehicle id="290_3221" route="290" depart="3221" />
    <vehicle id="291_3230" route="291" depart="3230" />
    <vehicle id="292_3232" route="292" depart="3232" />
    <vehicle id="293_3233" route="293" depart="3233" />
    <vehicle id="294_3234" route="294" depart="3234" />
    <vehicle id="295_3243" route="295" depart="3243" />
    <vehicle id="296_3253" route="296" depart="3253" />
    <vehicle id="297_3254" route="297" depart="3254" />
    <vehicle id="298_3257" route="298" depart="3257" />
    <vehicle id="299_3258" route="299" depart="3258" />
    <vehicle id="300_3261" route="300" depart="3261" />
    <vehicle id="301_3264" route="301" depart="3264" />
    <vehicle id="302_3275" route="302" depart="3275" />
    <vehicle id="303_3278" route="303" depart="3278" />
    <vehicle id="304_3288" route="304" depart="3288" />
    <vehicle id="305_3301" route="305" depart="3301" />
    <vehicle id="306_3307" route="306" depart="3307" />
    <vehicle id="307_3308" route="307" depart="3308" />
    <vehicle id="308_3315" route="308" depart="3315" />
    <vehicle id="309_3323" route="309" depart="3323" />
    <vehicle id="310_3330" route="310" depart="3330" />
    <vehicle id="311_3337" route="311" depart="3337" />
    <vehicle id="312_3344" route="312" depart="3344" />
    <vehicle id="313_3346" route="313" depart="3346" />
    <vehicle id="314_3350" route="314" depart="3350" />
    <vehicle id="315_3359" route="315" depart="3359" />
    <vehicle id="316_3399" route="316" depart="3399" />
    <vehicle id="317_3412" route="317" depart="3412" />
    <vehicle id="318_3417" route="318" depart="3417" />
    <vehicle id="319_3433" route="319" depart="3433" />
    <vehicle id="320_3436" route="320" depart="3436" />
    <vehicle id="321_3451" route="321" depart="3451" />
    <vehicle id="322_3469" route="322" depart="3469" />
    <vehicle id="323_3475" route="323" depart="3475" />
    <vehicle id="324_3478" route="324" depart="3478" />