<routes>

    <route id="1" edges="3i 2o"/>
    <route id="2" edges="2i 3o"/>
    <route id="3" edges="2i 3o"/>
    <route id="4" edges="7i 6o"/>
    <route id="5" edges="6i 7o"/>
    <route id="6" edges="4i 1o 5o"/>
    <route id="7" edges="3i 2o"/>
    <route id="8" edges="2i 3o"/>
    <route id="9" edges="3i 2o"/>
    <route id="10" edges="5i 1i 4o"/>
    <route id="11" edges="4i 1o 5o"/>
    <route id="12" edges="2i 3o"/>
    <route id="13" edges="7i 6o"/>
    <route id="14" edges="3i 2o"/>
    <route id="15" edges="6i 7o"/>
    <route id="16" edges="6i 7o"/>
    <route id="17" edges="7i 6o"/>
    <route id="18" edges="6i 7o"/>
    <route id="19" edges="5i 1i 4o"/>
    <route id="20" edges="7i 6o"/>
    <route id="21" edges="4i 1o 5o"/>
    <route id="22" edges="6i 7o"/>
    <route id="23" edges="7i 6o"/>
    <route id="24" edges="6i 7o"/>
    <route id="25" edges="5i 1i 4o"/>
    <route id="26" edges="7i 6o"/>
    <route id="27" edges="3i 2o"/>
    <route id="28" edges="5i 1i 4o"/>
    <route id="29" edges="4i 1o 5o"/>
    <route id="30" edges="6i 7o"/>
    <route id="31" edges="5i 1i 4o"/>
    <route id="32" edges="7i 6o"/>
    <route id="33" edges="7i 6o"/>
    <route id="34" edges="6i 7o"/>
    <route id="35" edges="7i 6o"/>
    <route id="36" edges="7i 6o"/>
    <route id="37" edges="3i 2o"/>
    <route id="38" edges="7i 6o"/>
    <route id="39" edges="6i 7o"/>
    <route id="40" edges="7i 6o"/>
    <route id="41" edges="2i 3o"/>
    <route id="42" edges="2i 3o"/>
    <route id="43" edges="6i 7o"/>
    <route id="44" edges="7i 6o"/>
    <route id="45" edges="3i 2o"/>
    <route id="46" edges="5i 1i 4o"/>
    <route id="47" edges="6i 7o"/>
    <route id="48" edges="6i 7o"/>
    <route id="49" edges="5i 1i 4o"/>
    <route id="50" edges="7i 6o"/>
    <route id="51" edges="6i 7o"/>
    <route id="52" edges="2i 3o"/>
    <route id="53" edges="5i 1i 4o"/>
    <route id="54" edges="6i 7o"/>
    <route id="55" edges="5i 1i 4o"/>
    <route id="56" edges="6i 7o"/>
    <route id="57" edges="2i 3o"/>
    <route id="58" edges="7i 6o"/>
    <route id="59" edges="2i 3o"/>
    <route id="60" edges="7i 6o"/>
    <route id="61" edges="3i 2o"/>
    <route id="62" edges="3i 2o"/>
    <route id="63" edges="7i 6o"/>
    <route id="64" edges="2i 3o"/>
    <route id="65" edges="7i 6o"/>
    <route id="66" edges="5i 1i 4o"/>
    <route id="67" edges="3i 2o"/>
    <route id="68" edges="2i 3o"/>
    <route id="69" edges="2i 3o"/>
    <route id="70" edges="7i 6o"/>
    <route id="71" edges="2i 3o"/>
    <route id="72" edges="2i 3o"/>
    <route id="73" edges="6i 7o"/>
    <route id="74" edges="4i 1o 5o"/>
    <route id="75" edges="2i 3o"/>
    <route id="76" edges="2i 3o"/>
    <route id="77" edges="2i 3o"/>
    <route id="78" edges="3i 2o"/>
    <route id="79" edges="6i 7o"/>
    <route id="80" edges="3i 2o"/>
    <route id="81" edges="7i 6o"/>
    <route id="82" edges="2i 3o"/>
    <route id="83" edges="7i 6o"/>
    <route id="84" edges="3i 2o"/>
    <route id="85" edges="6i 7o"/>
    <route id="86" edges="3i 2o"/>
    <route id="87" edges="5i 1i 4o"/>
    <route id="88" edges="7i 6o"/>
    <route id="89" edges="2i 3o"/>
    <route id="90" edges="4i 1o 5o"/>
    <route id="91" edges="4i 1o 5o"/>
    <route id="92" edges="7i 6o"/>
    <route id="93" edges="3i 2o"/>
    <route id="94" edges="6i 7o"/>
    <route id="95" edges="5i 1i 4o"/>
    <route id="96" edges="7i 6o"/>
    <route id="97" edges="4i 1o 5o"/>
    <route id="98" edges="4i 1o 5o"/>
    <route id="99" edges="3i 2o"/>
    <route id="100" edges="7i 6o"/>
    <route id="101" edges="6i 7o"/>
    <route id="102" edges="6i 7o"/>
    <route id="103" edges="3i 2o"/>
    <route id="104" edges="6i 7o"/>
    <route id="105" edges="4i 1o 5o"/>
    <route id="106" edges="2i 3o"/>
    <route id="107" edges="3i 2o"/>
    <route id="108" edges="7i 6o"/>
    <route id="109" edges="5i 1i 4o"/>
    <route id="110" edges="2i 3o"/>
    <route id="111" edges="3i 2o"/>
    <route id="112" edges="2i 3o"/>
    <route id="113" edges="3i 2o"/>
    <route id="114" edges="2i 3o"/>
    <route id="115" edges="3i 2o"/>
    <route id="116" edges="7i 6o"/>
    <route id="117" edges="4i 1o 5o"/>
    <route id="118" edges="7i 6o"/>
    <route id="119" edges="3i 2o"/>
    <route id="120" edges="2i 3o"/>
    <route id="121" edges="3i 2o"/>
    <route id="122" edges="7i 6o"/>
    <route id="123" edges="5i 1i 4o"/>
    <route id="124" edges="2i 3o"/>
    <route id="125" edges="3i 2o"/>
    <route id="126" edges="7i 6o"/>
    <route id="127" edges="6i 7o"/>
    <route id="128" edges="5i 1i 4o"/>
    <route id="129" edges="3i 2o"/>
    <route id="130" edges="3i 2o"/>
    <route id="131" edges="4i 1o 5o"/>
    <route id="132" edges="3i 2o"/>
    <route id="133" edges="4i 1o 5o"/>
    <route id="134" edges="4i 1o 5o"/>
    <route id="135" edges="7i 6o"/>
    <route id="136" edges="4i 1o 5o"/>
    <route id="137" edges="4i 1o 5o"/>
    <route id="138" edges="2i 3o"/>
    <route id="139" edges="4i 1o 5o"/>
    <route id="140" edges="3i 2o"/>
    <route id="141" edges="2i 3o"/>
    <route id="142" edges="4i 1o 5o"/>
    <route id="143" edges="2i 3o"/>
    <route id="144" edges="5i 1i 4o"/>
    <route id="145" edges="2i 3o"/>
    <route id="146" edges="4i 1o 5o"/>
    <route id="147" edges="3i 2o"/>
    <route id="148" edges="5i 1i 4o"/>
    <route id="149" edges="6i 7o"/>
    <route id="150" edges="2i 3o"/>
    <route id="151" edges="4i 1o 5o"/>
    <route id="152" edges="2i 3o"/>
    <route id="153" edges="4i 1o 5o"/>
    <route id="154" edges="6i 7o"/>
    <route id="155" edges="5i 1i 4o"/>
    <route id="156" edges="7i 6o"/>
    <route id="157" edges="3i 2o"/>
    <route id="158" edges="6i 7o"/>
    <route id="159" edges="2i 3o"/>
    <route id="160" edges="6i 7o"/>
    <route id="161" edges="6i 7o"/>
    <route id="162" edges="6i 7o"/>
    <route id="163" edges="6i 7o"/>
    <route id="164" edges="3i 2o"/>
    <route id="165" edges="3i 2o"/>
    <route id="166" edges="3i 2o"/>
    <route id="167" edges="6i 7o"/>
    <route id="168" edges="2i 3o"/>
    <route id="169" edges="6i 7o"/>
    <route id="170" edges="6i 7o"/>
    <route id="171" edges="6i 7o"/>
    <route id="172" edges="3i 2o"/>
    <route id="173" edges="6i 7o"/>
    <route id="174" edges="3i 2o"/>
    <route id="175" edges="3i 2o"/>
    <route id="176" edges="3i 2o"/>
    <route id="177" edges="4i 1o 5o"/>
    <route id="178" edges="5i 1i 4o"/>
    <route id="179" edges="5i 1i 4o"/>
    <route id="180" edges="3i 2o"/>
    <route id="181" edges="4i 1o 5o"/>
    <route id="182" edges="5i 1i 4o"/>
    <route id="183" edges="7i 6o"/>
    <route id="184" edges="6i 7o"/>
    <route id="185" edges="5i 1i 4o"/>
    <route id="186" edges="7i 6o"/>
    <route id="187" edges="3i 2o"/>
    <route id="188" edges="6i 7o"/>
    <route id="189" edges="3i 2o"/>
    <route id="190" edges="2i 3o"/>
    <route id="191" edges="7i 6o"/>
    <route id="192" edges="7i 6o"/>
    <route id="193" edges="3i 2o"/>
    <route id="194" edges="7i 6o"/>
    <route id="195" edges="4i 1o 5o"/>
    <route id="196" edges="2i 3o"/>
    <route id="197" edges="3i 2o"/>
    <route id="198" edges="6i 7o"/>
    <route id="199" edges="7i 6o"/>
    <route id="200" edges="2i 3o"/>
    <route id="201" edges="2i 3o"/>
    <route id="202" edges="3i 2o"/>
    <route id="203" edges="6i 7o"/>
    <route id="204" edges="5i 1i 4o"/>
    <route id="205" edges="2i 3o"/>
    <route id="206" edges="4i 1o 5o"/>
    <route id="207" edges="2i 3o"/>
    <route id="208" edges="5i 1i 4o"/>
    <route id="209" edges="5i 1i 4o"/>
    <route id="210" edges="5i 1i 4o"/>
    <route id="211" edges="3i 2o"/>
    <route id="212" edges="4i 1o 5o"/>
    <route id="213" edges="7i 6o"/>
    <route id="214" edges="7i 6o"/>
    <route id="215" edges="2i 3o"/>
    <route id="216" edges="3i 2o"/>
    <route id="217" edges="6i 7o"/>
    <route id="218" edges="7i 6o"/>
    <route id="219" edges="5i 1i 4o"/>
    <route id="220" edges="4i 1o 5o"/>
    <route id="221" edges="4i 1o 5o"/>
    <route id="222" edges="2i 3o"/>
    <route id="223" edges="5i 1i 4o"/>
    <route id="224" edges="3i 2o"/>
    <route id="225" edges="6i 7o"/>
    <route id="226" edges="4i 1o 5o"/>
    <route id="227" edges="5i 1i 4o"/>
    <route id="228" edges="5i 1i 4o"/>
    <route id="229" edges="2i 3o"/>
    <route id="230" edges="4i 1o 5o"/>
    <route id="231" edges="2i 3o"/>
    <route id="232" edges="3i 2o"/>
    <route id="233" edges="5i 1i 4o"/>
    <route id="234" edges="3i 2o"/>
    <route id="235" edges="3i 2o"/>
    <route id="236" edges="2i 3o"/>
    <route id="237" edges="5i 1i 4o"/>
    <route id="238" edges="2i 3o"/>
    <route id="239" edges="5i 1i 4o"/>
    <route id="240" edges="3i 2o"/>
    <route id="241" edges="4i 1o 5o"/>
    <route id="242" edges="4i 1o 5o"/>
    <route id="243" edges="5i 1i 4o"/>
    <route id="244" edges="3i 2o"/>
    <route id="245" edges="3i 2o"/>
    <route id="246" edges="7i 6o"/>
    <route id="247" edges="2i 3o"/>
    <route id="248" edges="4i 1o 5o"/>
    <route id="249" edges="3i 2o"/>
    <route id="250" edges="3i 2o"/>
    <route id="251" edges="5i 1i 4o"/>
    <route id="252" edges="5i 1i 4o"/>
    <route id="253" edges="7i 6o"/>
    <route id="254" edges="2i 3o"/>
    <route id="255" edges="6i 7o"/>
    <route id="256" edges="7i 6o"/>
    <route id="257" edges="7i 6o"/>
    <route id="258" edges="7i 6o"/>
    <route id="259" edges="4i 1o 5o"/>
    <route id="260" edges="4i 1o 5o"/>
    <route id="261" edges="2i 3o"/>
    <route id="262" edges="3i 2o"/>
    <route id="263" edges="4i 1o 5o"/>
    <route id="264" edges="2i 3o"/>
    <route id="265" edges="7i 6o"/>
    <route id="266" edges="3i 2o"/>
    <route id="267" edges="7i 6o"/>
    <route id="268" edges="7i 6o"/>
    <route id="269" edges="2i 3o"/>
    <route id="270" edges="2i 3o"/>
    <route id="271" edges="4i 1o 5o"/>
    <route id="272" edges="7i 6o"/>
    <route id="273" edges="3i 2o"/>
    <route id="274" edges="3i 2o"/>
    <route id="275" edges="3i 2o"/>
    <route id="276" edges="6i 7o"/>
    <route id="277" edges="5i 1i 4o"/>
    <route id="278" edges="5i 1i 4o"/>
    <route id="279" edges="4i 1o 5o"/>
    <route id="280" edges="6i 7o"/>
    <route id="281" edges="5i 1i 4o"/>
    <route id="282" edges="6i 7o"/>
    <route id="283" edges="5i 1i 4o"/>
    <route id="284" edges="4i 1o 5o"/>
    <route id="285" edges="2i 3o"/>
    <route id="286" edges="4i 1o 5o"/>
    <route id="287" edges="6i 7o"/>
    <route id="288" edges="3i 2o"/>
    <route id="289" edges="4i 1o 5o"/>
    <route id="290" edges="7i 6o"/>
    <route id="291" edges="5i 1i 4o"/>
    <route id="292" edges="4i 1o 5o"/>
    <route id="293" edges="6i 7o"/>
    <route id="294" edges="4i 1o 5o"/>
    <route id="295" edges="4i 1o 5o"/>
    <route id="296" edges="4i 1o 5o"/>
    <route id="297" edges="4i 1o 5o"/>
    <route id="298" edges="4i 1o 5o"/>
    <route id="299" edges="4i 1o 5o"/>
    <route id="300" edges="7i 6o"/>
    <route id="301" edges="5i 1i 4o"/>
    <route id="302" edges="2i 3o"/>
    <route id="303" edges="5i 1i 4o"/>
    <route id="304" edges="5i 1i 4o"/>
    <route id="305" edges="5i 1i 4o"/>
    <route id="306" edges="2i 3o"/>
    <route id="307" edges="7i 6o"/>
    <route id="308" edges="6i 7o"/>
    <route id="309" edges="6i 7o"/>
    <route id="310" edges="6i 7o"/>
    <route id="311" edges="4i 1o 5o"/>
    <route id="312" edges="5i 1i 4o"/>
    <route id="313" edges="2i 3o"/>
    <route id="314" edges="2i 3o"/>
    <route id="315" edges="3i 2o"/>
    <route id="316" edges="6i 7o"/>
    <route id="317" edges="5i 1i 4o"/>
    <route id="318" edges="4i 1o 5o"/>
    <route id="319" edges="4i 1o 5o"/>
    <route id="320" edges="3i 2o"/>
    <route id="321" edges="6i 7o"/>
    <route id="322" edges="5i 1i 4o"/>
    <route id="323" edges="4i 1o 5o"/>
    <route id="324" edges="5i 1i 4o"/>
    <route id="325" edges="2i 3o"/>
    <route id="326" edges="5i 1i 4o"/>
    <route id="327" edges="4i 1o 5o"/>
    <route id="328" edges="4i 1o 5o"/>
    <route id="329" edges="2i 3o"/>
    <route id="330" edges="7i 6o"/>
    <route id="331" edges="3i 2o"/>

    <vehicle id="1_13" route="1" depart="13" />
    <vehicle id="2_22" route="2" depart="22" />
    <vehicle id="3_24" route="3" depart="24" />
    <vehicle id="4_29" route="4" depart="29" />
    <vehicle id="5_33" route="5" depart="33" />
    <vehicle id="6_36" route="6" depart="36" />
    <vehicle id="7_53" route="7" depart="53" />
    <vehicle id="8_65" route="8" depart="65" />
    <vehicle id="9_67" route="9" depart="67" />
    <vehicle id="10_84" route="10" depart="84" />
    <vehicle id="11_91" route="11" depart="91" />
    <vehicle id="12_104" route="12" depart="104" />
    <vehicle id="13_148" route="13" depart="148" />
    <vehicle id="14_161" route="14" depart="161" />
    <vehicle id="15_206" route="15" depart="206" />
    <vehicle id="16_218" route="16" depart="218" />
    <vehicle id="17_234" route="17" depart="234" />
    <vehicle id="18_240" route="18" depart="240" />
    <vehicle id="19_266" route="19" depart="266" />
    <vehicle id="20_308" route="20" depart="308" />
    <vehicle id="21_312" route="21" depart="312" />
    <vehicle id="22_352" route="22" depart="352" />
    <vehicle id="23_353" route="23" depart="353" />
    <vehicle id="24_369" route="24" depart="369" />
    <vehicle id="25_379" route="25" depart="379" />
    <vehicle id="26_399" route="26" depart="399" />
    <vehicle id="27_404" route="27" depart="404" />
    <vehicle id="28_421" route="28" depart="421" />
    <vehicle id="29_424" route="29" depart="424" />
    <vehicle id="30_443" route="30" depart="443" />
    <vehicle id="31_449" route="31" depart="449" />
    <vehicle id="32_453" route="32" depart="453" />
    <vehicle id="33_455" route="33" depart="455" />
    <vehicle id="34_457" route="34" depart="457" />
    <vehicle id="35_471" route="35" depart="471" />
    <vehicle id="36_473" route="36" depart="473" />
    <vehicle id="37_482" route="37" depart="482" />
    <vehicle id="38_489" route="38" depart="489" />
    <vehicle id="39_494" route="39" depart="494" />
    <vehicle id="40_525" route="40" depart="525" />
    <vehicle id="41_550" route="41" depart="550" />
    <vehicle id="42_582" route="42" depart="582" />
    <vehicle id="43_584" route="43" depart="584" />
    <vehicle id="44_592" route="44" depart="592" />
    <vehicle id="45_593" route="45" depart="593" />
    <vehicle id="46_616" route="46" depart="616" />
    <vehicle id="47_631" route="47" depart="631" />
    <vehicle id="48_637" route="48" depart="637" />
    <vehicle id="49_670" route="49" depart="670" />
    <vehicle id="50_678" route="50" depart="678" />
    <vehicle id="51_700" route="51" depart="700" />
    <vehicle id="52_703" route="52" depart="703" />
    <vehicle id="53_707" route="53" depart="707" />
    <vehicle id="54_766" route="54" depart="766" />
    <vehicle id="55_770" route="55" depart="770" />
    <vehicle id="56_798" route="56" depart="798" />
    <vehicle id="57_802" route="57" depart="802" />
    <vehicle id="58_842" route="58" depart="842" />
    <vehicle id="59_849" route="59" depart="849" />
    <vehicle id="60_853" route="60" depart="853" />
    <vehicle id="61_879" route="61" depart="879" />
    <vehicle id="62_895" route="62" depart="895" />
    <vehicle id="63_897" route="63" depart="897" />
    <vehicle id="64_898" route="64" depart="898" />
    <vehicle id="65_903" route="65" depart="903" />
    <vehicle id="66_906" route="66" depart="906" />
    <vehicle id="67_909" route="67" depart="909" />
    <vehicle id="68_951" route="68" depart="951" />
    <vehicle id="69_956" route="69" depart="956" />
    <vehicle id="70_988" route="70" depart="988" />
    <vehicle id="71_991" route="71" depart="991" />
    <vehicle id="72_1011" route="72" depart="1011" />
    <vehicle id="73_1034" route="73" depart="1034" />
    <vehicle id="74_1044" route="74" depart="1044" />
    <vehicle id="75_1066" route="75" depart="1066" />
    <vehicle id="76_1079" route="76" depart="1079" />
    <vehicle id="77_1086" route="77" depart="1086" />
    <vehicle id="78_1102" route="78" depart="1102" />
    <vehicle id="79_1104" route="79" depart="1104" />
    <vehicle id="80_1107" route="80" depart="1107" />
    <vehicle id="81_1109" route="81" depart="1109" />
    <vehicle id="82_1111" route="82" depart="1111" />
    <vehicle id="83_1123" route="83" depart="1123" />
    <vehicle id="84_1149" route="84" depart="1149" />
    <vehicle id="85_1156" route="85" depart="1156" />
    <vehicle id="86_1158" route="86" depart="1158" />
    <vehicle id="87_1164" route="87" depart="1164" />
    <vehicle id="88_1172" route="88" depart="1172" />
    <vehicle id="89_1183" route="89" depart="1183" />
    <vehicle id="90_1193" route="90" depart="1193" />
    <vehicle id="91_1198" route="91" depart="1198" />
    <vehicle id="92_1204" route="92" depart="1204" />
    <vehicle id="93_1229" route="93" depart="1229" />
    <vehicle id="94_1233" route="94" depart="1233" />
    <vehicle id="95_1234" route="95" depart="1234" />
    <vehicle id="96_1240" route="96" depart="1240" />
    <vehicle id="97_1246" route="97" depart="1246" />
    <vehicle id="98_1254" route="98" depart="1254" />
    <vehicle id="99_1261" route="99" depart="1261" />
    <vehicle id="100_1267" route="100" depart="1267" />
    <vehicle id="101_1274" route="101" depart="1274" />
    <vehicle id="102_1305" route="102" depart="1305" />
    <vehicle id="103_1316" route="103" depart="1316" />
    <vehicle id="104_1319" route="104" depart="1319" />
    <vehicle id="105_1327" route="105" depart="1327" />
    <vehicle id="106_1345" route="106" depart="1345" />
    <vehicle id="107_1357" route="107" depart="1357" />
    <vehicle id="108_1373" route="108" depart="1373" />
    <vehicle id="109_1376" route="109" depart="1376" />
    <vehicle id="110_1381" route="110" depart="1381" />
    <vehicle id="111_1384" route="111" depart="1384" />
    <vehicle id="112_1385" route="112" depart="1385" />
    <vehicle id="113_1390" route="113" depart="1390" />
    <vehicle id="114_1402" route="114" depart="1402" />
    <vehicle id="115_1405" route="115" depart="1405" />
    <vehicle id="116_1410" route="116" depart="1410" />
    <vehicle id="117_1412" route="117" depart="1412" />
    <vehicle id="118_1419" route="118" depart="1419" />
    <vehicle id="119_1420" route="119" depart="1420" />
    <vehicle id="120_1423" route="120" depart="1423" />
    <vehicle id="121_1429" route="121" depart="1429" />
    <vehicle id="122_1438" route="122" depart="1438" />
    <vehicle id="123_1440" route="123" depart="1440" />
    <vehicle id="124_1456" route="124" depart="1456" />
    <vehicle id="125_1463" route="125" depart="1463" />
    <vehicle id="126_1465" route="126" depart="1465" />
    <vehicle id="127_1469" route="127" depart="1469" />
    <vehicle id="128_1473" route="128" depart="1473" />
    <vehicle id="129_1474" route="129" depart="1474" />
    <vehicle id="130_1505" route="130" depart="1505" />
    <vehicle id="131_1515" route="131" depart="1515" />
    <vehicle id="132_1516" route="132" depart="1516" />
    <vehicle id="133_1518" route="133" depart="1518" />
    <vehicle id="134_1551" route="134" depart="1551" />
    <vehicle id="135_1553" route="135" depart="1553" />
    <vehicle id="136_1567" route="136" depart="1567" />
    <vehicle id="137_1574" route="137" depart="1574" />
    <vehicle id="138_1616" route="138" depart="1616" />
    <vehicle id="139_1635" route="139" depart="1635" />
    <vehicle id="140_1637" route="140" depart="1637" />
    <vehicle id="141_1644" route="141" depart="1644" />
    <vehicle id="142_1649" route="142" depart="1649" />
    <vehicle id="143_1657" route="143" depart="1657" />
    <vehicle id="144_1691" route="144" depart="1691" />
    <vehicle id="145_1697" route="145" depart="1697" />
    <vehicle id="146_1708" route="146" depart="1708" />
    <vehicle id="147_1714" route="147" depart="1714" />
    <vehicle id="148_1719" route="148" depart="1719" />
    <vehicle id="149_1720" route="149" depart="1720" />
    <vehicle id="150_1731" route="150" depart="1731" />
    <vehicle id="151_1732" route="151" depart="1732" />
    <vehicle id="152_1736" route="152" depart="1736" />
    <vehicle id="153_1740" route="153" depart="1740" />
    <vehicle id="154_1755" route="154" depart="1755" />
    <vehicle id="155_1759" route="155" depart="1759" />
    <vehicle id="156_1769" route="156" depart="1769" />
    <vehicle id="157_1774" route="157" depart="1774" />
    <vehicle id="158_1775" route="158" depart="1775" />
    <vehicle id="159_1794" route="159" depart="1794" />
    <vehicle id="160_1816" route="160" depart="1816" />
    <vehicle id="161_1822" route="161" depart="1822" />
    <vehicle id="162_1824" route="162" depart="1824" />
    <vehicle id="163_1839" route="163" depart="1839" />
    <vehicle id="164_1840" route="164" depart="1840" />
    <vehicle id="165_1851" route="165" depart="1851" />
    <vehicle id="166_1863" route="166" depart="1863" />
    <vehicle id="167_1892" route="167" depart="1892" />
    <vehicle id="168_1895" route="168" depart="1895" />
    <vehicle id="169_1914" route="169" depart="1914" />
    <vehicle id="170_1933" route="170" depart="1933" />
    <vehicle id="171_1934" route="171" depart="1934" />
    <vehicle id="172_1935" route="172" depart="1935" />
    <vehicle id="173_1963" route="173" depart="1963" />
    <vehicle id="174_1968" route="174" depart="1968" />
    <vehicle id="175_1976" route="175" depart="1976" />
    <vehicle id="176_1983" route="176" depart="1983" />
    <vehicle id="177_1991" route="177" depart="1991" />
    <vehicle id="178_1994" route="178" depart="1994" />
    <vehicle id="179_2003" route="179" depart="2003" />
    <vehicle id="180_2010" route="180" depart="2010" />
    <vehicle id="181_2039" route="181" depart="2039" />
    <vehicle id="182_2045" route="182" depart="2045" />
    <vehicle id="183_2063" route="183" depart="2063" />
    <vehicle id="184_2065" route="184" depart="2065" />
    <vehicle id="185_2085" route="185" depart="2085" />
    <vehicle id="186_2103" route="186" depart="2103" />
    <vehicle id="187_2117" route="187" depart="2117" />
    <vehicle id="188_2118" route="188" depart="2118" />
    <vehicle id="189_2129" route="189" depart="2129" />
    <vehicle id="190_2134" route="190" depart="2134" />
    <vehicle id="191_2144" route="191" depart="2144" />
    <vehicle id="192_2188" route="192" depart="2188" />
    <vehicle id="193_2191" route="193" depart="2191" />
    <vehicle id="194_2194" route="194" depart="2194" />
    <vehicle id="195_2205" route="195" depart="2205" />
    <vehicle id="196_2244" route="196" depart="2244" />
    <vehicle id="197_2251" route="197" depart="2251" />
    <vehicle id="198_2261" route="198" depart="2261" />
    <vehicle id="199_2266" route="199" depart="2266" />
    <vehicle id="200_2270" route="200" depart="2270" />
    <vehicle id="201_2278" route="201" depart="2278" />
    <vehicle id="202_2283" route="202" depart="2283" />
    <vehicle id="203_2285" route="203" depart="2285" />
    <vehicle id="204_2303" route="204" depart="2303" />
    <vehicle id="205_2319" route="205" depart="2319" />
    <vehicle id="206_2320" route="206" depart="2320" />
    <vehicle id="207_2323" route="207" depart="2323" />
    <vehicle id="208_2326" route="208" depart="2326" />
    <vehicle id="209_2331" route="209" depart="2331" />
    <vehicle id="210_2345" route="210" depart="2345" />
    <vehicle id="211_2351" route="211" depart="2351" />
    <vehicle id="212_2357" route="212" depart="2357" />
    <vehicle id="213_2358" route="213" depart="2358" />
    <vehicle id="214_2367" route="214" depart="2367" />
    <vehicle id="215_2368" route="215" depart="2368" />
    <vehicle id="216_2398" route="216" depart="2398" />
    <vehicle id="217_2412" route="217" depart="2412" />
    <vehicle id="218_2413" route="218" depart="2413" />
    <vehicle id="219_2424" route="219" depart="2424" />
    <vehicle id="220_2440" route="220" depart="2440" />
    <vehicle id="221_2445" route="221" depart="2445" />
    <vehicle id="222_2465" route="222" depart="2465" />
    <vehicle id="223_2466" route="223" depart="2466" />
    <vehicle id="224_2476" route="224" depart="2476" />
    <vehicle id="225_2485" route="225" depart="2485" />
    <vehicle id="226_2512" route="226" depart="2512" />
    <vehicle id="227_2520" route="227" depart="2520" />
    <vehicle id="228_2522" route="228" depart="2522" />
    <vehicle id="229_2553" route="229" depart="2553" />
    <vehicle id="230_2573" route="230" depart="2573" />
    <vehicle id="231_2588" route="231" depart="2588" />
    <vehicle id="232_2607" route="232" depart="2607" />
    <vehicle id="233_2624" route="233" depart="2624" />
    <vehicle id="234_2628" route="234" depart="2628" />
    <vehicle id="235_2636" route="235" depart="2636" />
    <vehicle id="236_2643" route="236" depart="2643" />
    <vehicle id="237_2648" route="237" depart="2648" />
    <vehicle id="238_2651" route="238" depart="2651" />
    <vehicle id="239_2673" route="239" depart="2673" />
    <vehicle id="240_2674" route="240" depart="2674" />
    <vehicle id="241_2675" route="241" depart="2675" />
    <vehicle id="242_2676" route="242" depart="2676" />
    <vehicle id="243_2686" route="243" depart="2686" />
    <vehicle id="244_2701" route="244" depart="2701" />
    <vehicle id="245_2705" route="245" depart="2705" />
    <vehicle id="246_2722" route="246" depart="2722" />
    <vehicle id="247_2767" route="247" depart="2767" />
    <vehicle id="248_2776" route="248" depart="2776" />
    <vehicle id="249_2781" route="249" depart="2781" />
    <vehicle id="250_2783" route="250" depart="2783" />
    <vehicle id="251_2797" route="251" depart="2797" />
    <vehicle id="252_2800" route="252" depart="2800" />
    <vehicle id="253_2816" route="253" depart="2816" />
    <vehicle id="254_2830" route="254" depart="2830" />
    <vehicle id="255_2831" route="255" depart="2831" />
    <vehicle id="256_2841" route="256" depart="2841" />
    <vehicle id="257_2842" route="257" depart="2842" />
    <vehicle id="258_2871" route="258" depart="2871" />
    <vehicle id="259_2884" route="259" depart="2884" />
    <vehicle id="260_2885" route="260" depart="2885" />
    <vehicle id="261_2888" route="261" depart="2888" />
    <vehicle id="262_2907" route="262" depart="2907" />
    <vehicle id="263_2916" route="263" depart="2916" />
    <vehicle id="264_2922" route="264" depart="2922" />
    <vehicle id="265_2951" route="265" depart="2951" />
    <vehicle id="266_2974" route="266" depart="2974" />
    <vehicle id="267_2976" route="267" depart="2976" />
    <vehicle id="268_3004" route="268" depart="3004" />
    <vehicle id="269_3015" route="269" depart="3015" />
    <vehicle id="270_3049" route="270" depart="3049" />
    <vehicle id="271_3057" route="271" depart="3057" />
    <vehicle id="272_3058" route="272" depart="3058" />
    <vehicle id="273_3065" route="273" depart="3065" />
    <vehicle id="274_3082" route="274" depart="3082" />
    <vehicle id="275_3086" route="275" depart="3086" />
    <vehicle id="276_3104" route="276" depart="3104" />
    <vehicle id="277_3105" route="277" depart="3105" />
    <vehicle id="278_3132" route="278" depart="3132" />
    <vehicle id="279_3142" route="279" depart="3142" />
    <vehicle id="280_3145" route="280" depart="3145" />
    <vehicle id="281_3148" route="281" depart="3148" />
    <vehicle id="282_3151" route="282" depart="3151" />
    <vehicle id="283_3153" route="283" depart="3153" />
    <vehicle id="284_3159" route="284" depart="3159" />
    <vehicle id="285_3176" route="285" depart="3176" />
    <vehicle id="286_3190" route="286" depart="3190" />
    <vehicle id="287_3204" route="287" depart="3204" />
    <vehicle id="288_3219" route="288" depart="3219" />
    <vehicle id="289_3244" route="289" depart="3244" />
    <vehicle id="290_3246" route="290" depart="3246" />
    <vehicle id="291_3250" route="291" depart="3250" />
    <vehicle id="292_3284" route="292" depart="3284" />
    <vehicle id="293_3303" route="293" depart="3303" />
    <vehicle id="294_3323" route="294" depart="3323" />
    <vehicle id="295_3343" route="295" depart="3343" />
    <vehicle id="296_3350" route="296" depart="3350" />
    <vehicle id="297_3352" route="297" depart="3352" />
    <vehicle id="298_3353" route="298" depart="3353" />
    <vehicle id="299_3371" route="299" depart="3371" />
    <vehicle id="300_3373" route="300" depart="3373" />
    <vehicle id="301_3379" route="301" depart="3379" />
    <vehicle id="302_3391" route="302" depart="3391" />
    <vehicle id="303_3392" route="303" depart="3392" />
    <vehicle id="304_3402" route="304" depart="3402" />
    <vehicle id="305_3406" route="305" depart="3406" />
    <vehicle id="306_3408" route="306" depart="3408" />
    <vehicle id="307_3411" route="307" depart="3411" />
    <vehicle id="308_3419" route="308" depart="3419" />
    <vehicle id="309_3430" route="309" depart="3430" />
    <vehicle id="310_3432" route="310" depart="3432" />
    <vehicle id="311_3435" route="311" depart="3435" />
    <vehicle id="312_3442" route="312" depart="3442" />
    <vehicle id="313_3444" route="313" depart="3444" />
    <vehicle id="314_3448" route="314" depart="3448" />
    <vehicle id="315_3454" route="315" depart="3454" />
    <vehicle id="316_3471" route="316" depart="3471" />
    <vehicle id="317_3472" route="317" depart="3472" />
    <vehicle id="318_3474" route="318" depart="3474" />
    <vehicle id="319_3481" route="319" depart="3481" />
    <vehicle id="320_3487" route="320" depart="3487" />
    <vehicle id="321_3488" route="321" depart="3488" />
    <vehicle id="322_3493" route="322" depart="3493" />
    <vehicle id="323_3495" route="323" depart="3495" />
    <vehicle id="324_3528" route="324" depart="3528" />
    <vehicle id="325_3531" route="325" depart="3531" />