<routes>

    <route id="1" edges="7i 6o"/>
    <route id="2" edges="2i 3o"/>
    <route id="3" edges="6i 7o"/>
    <route id="4" edges="7i 6o"/>
    <route id="5" edges="6i 7o"/>
    <route id="6" edges="2i 3o"/>
    <route id="7" edges="2i 3o"/>
    <route id="8" edges="4i 1o 5o"/>
    <route id="9" edges="5i 1i 4o"/>
    <route id="10" edges="6i 7o"/>
    <route id="11" edges="6i 7o"/>
    <route id="12" edges="5i 1i 4o"/>
    <route id="13" edges="5i 1i 4o"/>
    <route id="14" edges="4i 1o 5o"/>
    <route id="15" edges="5i 1i 4o"/>
    <route id="16" edges="6i 7o"/>
    <route id="17" edges="2i 3o"/>
    <route id="18" edges="5i 1i 4o"/>
    <route id="19" edges="3i 2o"/>
    <route id="20" edges="5i 1i 4o"/>
    <route id="21" edges="3i 2o"/>
    <route id="22" edges="5i 1i 4o"/>
    <route id="23" edges="5i 1i 4o"/>
    <route id="24" edges="5i 1i 4o"/>
    <route id="25" edges="6i 7o"/>
    <route id="26" edges="7i 6o"/>
    <route id="27" edges="7i 6o"/>
    <route id="28" edges="3i 2o"/>
    <route id="29" edges="7i 6o"/>
    <route id="30" edges="5i 1i 4o"/>
    <route id="31" edges="2i 3o"/>
    <route id="32" edges="6i 7o"/>
    <route id="33" edges="7i 6o"/>
    <route id="34" edges="3i 2o"/>
    <route id="35" edges="5i 1i 4o"/>
    <route id="36" edges="3i 2o"/>
    <route id="37" edges="4i 1o 5o"/>
    <route id="38" edges="3i 2o"/>
    <route id="39" edges="5i 1i 4o"/>
    <route id="40" edges="3i 2o"/>
    <route id="41" edges="3i 2o"/>
    <route id="42" edges="4i 1o 5o"/>
    <route id="43" edges="3i 2o"/>
    <route id="44" edges="7i 6o"/>
    <route id="45" edges="5i 1i 4o"/>
    <route id="46" edges="5i 1i 4o"/>
    <route id="47" edges="5i 1i 4o"/>
    <route id="48" edges="3i 2o"/>
    <route id="49" edges="7i 6o"/>
    <route id="50" edges="7i 6o"/>
    <route id="51" edges="7i 6o"/>
    <route id="52" edges="6i 7o"/>
    <route id="53" edges="7i 6o"/>
    <route id="54" edges="3i 2o"/>
    <route id="55" edges="5i 1i 4o"/>
    <route id="56" edges="7i 6o"/>
    <route id="57" edges="5i 1i 4o"/>
    <route id="58" edges="2i 3o"/>
    <route id="59" edges="7i 6o"/>
    <route id="60" edges="4i 1o 5o"/>
    <route id="61" edges="3i 2o"/>
    <route id="62" edges="6i 7o"/>
    <route id="63" edges="6i 7o"/>
    <route id="64" edges="7i 6o"/>
    <route id="65" edges="4i 1o 5o"/>
    <route id="66" edges="7i 6o"/>
    <route id="67" edges="4i 1o 5o"/>
    <route id="68" edges="5i 1i 4o"/>
    <route id="69" edges="6i 7o"/>
    <route id="70" edges="6i 7o"/>
    <route id="71" edges="4i 1o 5o"/>
    <route id="72" edges="2i 3o"/>
    <route id="73" edges="7i 6o"/>
    <route id="74" edges="6i 7o"/>
    <route id="75" edges="3i 2o"/>
    <route id="76" edges="5i 1i 4o"/>
    <route id="77" edges="6i 7o"/>
    <route id="78" edges="4i 1o 5o"/>
    <route id="79" edges="6i 7o"/>
    <route id="80" edges="2i 3o"/>
    <route id="81" edges="6i 7o"/>
    <route id="82" edges="2i 3o"/>
    <route id="83" edges="6i 7o"/>
    <route id="84" edges="5i 1i 4o"/>
    <route id="85" edges="5i 1i 4o"/>
    <route id="86" edges="7i 6o"/>
    <route id="87" edges="3i 2o"/>
    <route id="88" edges="4i 1o 5o"/>
    <route id="89" edges="6i 7o"/>
    <route id="90" edges="5i 1i 4o"/>
    <route id="91" edges="3i 2o"/>
    <route id="92" edges="3i 2o"/>
    <route id="93" edges="7i 6o"/>
    <route id="94" edges="6i 7o"/>
    <route id="95" edges="7i 6o"/>
    <route id="96" edges="7i 6o"/>
    <route id="97" edges="6i 7o"/>
    <route id="98" edges="2i 3o"/>
    <route id="99" edges="2i 3o"/>
    <route id="100" edges="7i 6o"/>
    <route id="101" edges="3i 2o"/>
    <route id="102" edges="2i 3o"/>
    <route id="103" edges="6i 7o"/>
    <route id="104" edges="4i 1o 5o"/>
    <route id="105" edges="7i 6o"/>
    <route id="106" edges="5i 1i 4o"/>
    <route id="107" edges="5i 1i 4o"/>
    <route id="108" edges="6i 7o"/>
    <route id="109" edges="6i 7o"/>
    <route id="110" edges="7i 6o"/>
    <route id="111" edges="6i 7o"/>
    <route id="112" edges="3i 2o"/>
    <route id="113" edges="2i 3o"/>
    <route id="114" edges="6i 7o"/>
    <route id="115" edges="6i 7o"/>
    <route id="116" edges="5i 1i 4o"/>
    <route id="117" edges="6i 7o"/>
    <route id="118" edges="2i 3o"/>
    <route id="119" edges="7i 6o"/>
    <route id="120" edges="4i 1o 5o"/>
    <route id="121" edges="4i 1o 5o"/>
    <route id="122" edges="5i 1i 4o"/>
    <route id="123" edges="3i 2o"/>
    <route id="124" edges="3i 2o"/>
    <route id="125" edges="4i 1o 5o"/>
    <route id="126" edges="4i 1o 5o"/>
    <route id="127" edges="7i 6o"/>
    <route id="128" edges="6i 7o"/>
    <route id="129" edges="5i 1i 4o"/>
    <route id="130" edges="7i 6o"/>
    <route id="131" edges="5i 1i 4o"/>
    <route id="132" edges="6i 7o"/>
    <route id="133" edges="3i 2o"/>
    <route id="134" edges="6i 7o"/>
    <route id="135" edges="7i 6o"/>
    <route id="136" edges="5i 1i 4o"/>
    <route id="137" edges="5i 1i 4o"/>
    <route id="138" edges="4i 1o 5o"/>
    <route id="139" edges="7i 6o"/>
    <route id="140" edges="4i 1o 5o"/>
    <route id="141" edges="7i 6o"/>
    <route id="142" edges="7i 6o"/>
    <route id="143" edges="4i 1o 5o"/>
    <route id="144" edges="5i 1i 4o"/>
    <route id="145" edges="6i 7o"/>
    <route id="146" edges="7i 6o"/>
    <route id="147" edges="3i 2o"/>
    <route id="148" edges="5i 1i 4o"/>
    <route id="149" edges="4i 1o 5o"/>
    <route id="150" edges="2i 3o"/>
    <route id="151" edges="7i 6o"/>
    <route id="152" edges="5i 1i 4o"/>
    <route id="153" edges="5i 1i 4o"/>
    <route id="154" edges="7i 6o"/>
    <route id="155" edges="7i 6o"/>
    <route id="156" edges="4i 1o 5o"/>
    <route id="157" edges="4i 1o 5o"/>
    <route id="158" edges="4i 1o 5o"/>
    <route id="159" edges="5i 1i 4o"/>
    <route id="160" edges="5i 1i 4o"/>
    <route id="161" edges="5i 1i 4o"/>
    <route id="162" edges="5i 1i 4o"/>
    <route id="163" edges="6i 7o"/>
    <route id="164" edges="6i 7o"/>
    <route id="165" edges="4i 1o 5o"/>
    <route id="166" edges="3i 2o"/>
    <route id="167" edges="3i 2o"/>
    <route id="168" edges="3i 2o"/>
    <route id="169" edges="4i 1o 5o"/>
    <route id="170" edges="4i 1o 5o"/>
    <route id="171" edges="4i 1o 5o"/>
    <route id="172" edges="2i 3o"/>
    <route id="173" edges="2i 3o"/>
    <route id="174" edges="5i 1i 4o"/>
    <route id="175" edges="2i 3o"/>
    <route id="176" edges="5i 1i 4o"/>
    <route id="177" edges="3i 2o"/>
    <route id="178" edges="4i 1o 5o"/>
    <route id="179" edges="2i 3o"/>
    <route id="180" edges="6i 7o"/>
    <route id="181" edges="6i 7o"/>
    <route id="182" edges="6i 7o"/>
    <route id="183" edges="4i 1o 5o"/>
    <route id="184" edges="6i 7o"/>
    <route id="185" edges="6i 7o"/>
    <route id="186" edges="4i 1o 5o"/>
    <route id="187" edges="7i 6o"/>
    <route id="188" edges="5i 1i 4o"/>
    <route id="189" edges="2i 3o"/>
    <route id="190" edges="6i 7o"/>
    <route id="191" edges="7i 6o"/>
    <route id="192" edges="4i 1o 5o"/>
    <route id="193" edges="2i 3o"/>
    <route id="194" edges="2i 3o"/>
    <route id="195" edges="7i 6o"/>
    <route id="196" edges="5i 1i 4o"/>
    <route id="197" edges="6i 7o"/>
    <route id="198" edges="6i 7o"/>
    <route id="199" edges="4i 1o 5o"/>
    <route id="200" edges="5i 1i 4o"/>
    <route id="201" edges="3i 2o"/>
    <route id="202" edges="7i 6o"/>
    <route id="203" edges="4i 1o 5o"/>
    <route id="204" edges="6i 7o"/>
    <route id="205" edges="2i 3o"/>
    <route id="206" edges="7i 6o"/>
    <route id="207" edges="3i 2o"/>
    <route id="208" edges="2i 3o"/>
    <route id="209" edges="7i 6o"/>
    <route id="210" edges="6i 7o"/>
    <route id="211" edges="7i 6o"/>
    <route id="212" edges="3i 2o"/>
    <route id="213" edges="3i 2o"/>
    <route id="214" edges="7i 6o"/>
    <route id="215" edges="5i 1i 4o"/>
    <route id="216" edges="3i 2o"/>
    <route id="217" edges="4i 1o 5o"/>
    <route id="218" edges="7i 6o"/>
    <route id="219" edges="2i 3o"/>
    <route id="220" edges="2i 3o"/>
    <route id="221" edges="4i 1o 5o"/>
    <route id="222" edges="5i 1i 4o"/>
    <route id="223" edges="5i 1i 4o"/>
    <route id="224" edges="4i 1o 5o"/>
    <route id="225" edges="2i 3o"/>
    <route id="226" edges="4i 1o 5o"/>
    <route id="227" edges="5i 1i 4o"/>
    <route id="228" edges="2i 3o"/>
    <route id="229" edges="7i 6o"/>
    <route id="230" edges="4i 1o 5o"/>
    <route id="231" edges="2i 3o"/>
    <route id="232" edges="4i 1o 5o"/>
    <route id="233" edges="6i 7o"/>
    <route id="234" edges="3i 2o"/>
    <route id="235" edges="5i 1i 4o"/>
    <route id="236" edges="4i 1o 5o"/>
    <route id="237" edges="4i 1o 5o"/>
    <route id="238" edges="7i 6o"/>
    <route id="239" edges="4i 1o 5o"/>
    <route id="240" edges="2i 3o"/>
    <route id="241" edges="2i 3o"/>
    <route id="242" edges="6i 7o"/>
    <route id="243" edges="2i 3o"/>
    <route id="244" edges="5i 1i 4o"/>
    <route id="245" edges="2i 3o"/>
    <route id="246" edges="3i 2o"/>
    <route id="247" edges="6i 7o"/>
    <route id="248" edges="7i 6o"/>
    <route id="249" edges="2i 3o"/>
    <route id="250" edges="5i 1i 4o"/>
    <route id="251" edges="6i 7o"/>
    <route id="252" edges="6i 7o"/>
    <route id="253" edges="6i 7o"/>
    <route id="254" edges="7i 6o"/>
    <route id="255" edges="4i 1o 5o"/>
    <route id="256" edges="7i 6o"/>
    <route id="257" edges="2i 3o"/>
    <route id="258" edges="5i 1i 4o"/>
    <route id="259" edges="3i 2o"/>
    <route id="260" edges="7i 6o"/>
    <route id="261" edges="7i 6o"/>
    <route id="262" edges="5i 1i 4o"/>
    <route id="263" edges="6i 7o"/>
    <route id="264" edges="6i 7o"/>
    <route id="265" edges="2i 3o"/>
    <route id="266" edges="6i 7o"/>
    <route id="267" edges="7i 6o"/>
    <route id="268" edges="2i 3o"/>
    <route id="269" edges="3i 2o"/>
    <route id="270" edges="2i 3o"/>
    <route id="271" edges="5i 1i 4o"/>
    <route id="272" edges="5i 1i 4o"/>
    <route id="273" edges="7i 6o"/>
    <route id="274" edges="6i 7o"/>
    <route id="275" edges="3i 2o"/>
    <route id="276" edges="3i 2o"/>
    <route id="277" edges="5i 1i 4o"/>
    <route id="278" edges="4i 1o 5o"/>
    <route id="279" edges="4i 1o 5o"/>
    <route id="280" edges="5i 1i 4o"/>
    <route id="281" edges="6i 7o"/>
    <route id="282" edges="4i 1o 5o"/>
    <route id="283" edges="3i 2o"/>
    <route id="284" edges="3i 2o"/>
    <route id="285" edges="3i 2o"/>
    <route id="286" edges="4i 1o 5o"/>
    <route id="287" edges="4i 1o 5o"/>
    <route id="288" edges="6i 7o"/>
    <route id="289" edges="6i 7o"/>
    <route id="290" edges="3i 2o"/>
    <route id="291" edges="6i 7o"/>
    <route id="292" edges="7i 6o"/>
    <route id="293" edges="6i 7o"/>
    <route id="294" edges="4i 1o 5o"/>
    <route id="295" edges="5i 1i 4o"/>
    <route id="296" edges="3i 2o"/>
    <route id="297" edges="7i 6o"/>
    <route id="298" edges="5i 1i 4o"/>
    <route id="299" edges="6i 7o"/>
    <route id="300" edges="2i 3o"/>
    <route id="301" edges="4i 1o 5o"/>
    <route id="302" edges="2i 3o"/>
    <route id="303" edges="3i 2o"/>
    <route id="304" edges="2i 3o"/>
    <route id="305" edges="4i 1o 5o"/>
    <route id="306" edges="7i 6o"/>
    <route id="307" edges="4i 1o 5o"/>
    <route id="308" edges="5i 1i 4o"/>
    <route id="309" edges="5i 1i 4o"/>
    <route id="310" edges="3i 2o"/>
    <route id="311" edges="7i 6o"/>
    <route id="312" edges="6i 7o"/>
    <route id="313" edges="2i 3o"/>
    <route id="314" edges="5i 1i 4o"/>
    <route id="315" edges="3i 2o"/>
    <route id="316" edges="3i 2o"/>
    <route id="317" edges="7i 6o"/>
    <route id="318" edges="6i 7o"/>
    <route id="319" edges="5i 1i 4o"/>
    <route id="320" edges="2i 3o"/>
    <route id="321" edges="4i 1o 5o"/>
    <route id="322" edges="2i 3o"/>
    <route id="323" edges="7i 6o"/>
    <route id="324" edges="7i 6o"/>
    <route id="325" edges="7i 6o"/>
    <route id="326" edges="7i 6o"/>
    <route id="327" edges="2i 3o"/>
    <route id="328" edges="7i 6o"/>
    <route id="329" edges="5i 1i 4o"/>
    <route id="330" edges="5i 1i 4o"/>
    <route id="331" edges="5i 1i 4o"/>
    <route id="332" edges="7i 6o"/>
    <route id="333" edges="4i 1o 5o"/>
    <route id="334" edges="2i 3o"/>
    <route id="335" edges="7i 6o"/>
    <route id="336" edges="4i 1o 5o"/>
    <route id="337" edges="6i 7o"/>
    <route id="338" edges="7i 6o"/>
    <route id="339" edges="4i 1o 5o"/>
    <route id="340" edges="4i 1o 5o"/>
    <route id="341" edges="6i 7o"/>
    <route id="342" edges="4i 1o 5o"/>
    <route id="343" edges="7i 6o"/>
    <route id="344" edges="2i 3o"/>
    <route id="345" edges="7i 6o"/>
    <route id="346" edges="4i 1o 5o"/>
    <route id="347" edges="3i 2o"/>
    <route id="348" edges="7i 6o"/>
    <route id="349" edges="7i 6o"/>
    <route id="350" edges="2i 3o"/>
    <route id="351" edges="2i 3o"/>

    <vehicle id="1_1" route="1" depart="1" />
    <vehicle id="2_5" route="2" depart="5" />
    <vehicle id="3_18" route="3" depart="18" />
    <vehicle id="4_23" route="4" depart="23" />
    <vehicle id="5_26" route="5" depart="26" />
    <vehicle id="6_35" route="6" depart="35" />
    <vehicle id="7_57" route="7" depart="57" />
    <vehicle id="8_63" route="8" depart="63" />
    <vehicle id="9_72" route="9" depart="72" />
    <vehicle id="10_73" route="10" depart="73" />
    <vehicle id="11_81" route="11" depart="81" />
    <vehicle id="12_101" route="12" depart="101" />
    <vehicle id="13_105" route="13" depart="105" />
    <vehicle id="14_128" route="14" depart="128" />
    <vehicle id="15_130" route="15" depart="130" />
    <vehicle id="16_136" route="16" depart="136" />
    <vehicle id="17_144" route="17" depart="144" />
    <vehicle id="18_150" route="18" depart="150" />
    <vehicle id="19_158" route="19" depart="158" />
    <vehicle id="20_161" route="20" depart="161" />
    <vehicle id="21_192" route="21" depart="192" />
    <vehicle id="22_193" route="22" depart="193" />
    <vehicle id="23_194" route="23" depart="194" />
    <vehicle id="24_199" route="24" depart="199" />
    <vehicle id="25_204" route="25" depart="204" />
    <vehicle id="26_214" route="26" depart="214" />
    <vehicle id="27_216" route="27" depart="216" />
    <vehicle id="28_220" route="28" depart="220" />
    <vehicle id="29_229" route="29" depart="229" />
    <vehicle id="30_254" route="30" depart="254" />
    <vehicle id="31_259" route="31" depart="259" />
    <vehicle id="32_262" route="32" depart="262" />
    <vehicle id="33_277" route="33" depart="277" />
    <vehicle id="34_291" route="34" depart="291" />
    <vehicle id="35_306" route="35" depart="306" />
    <vehicle id="36_308" route="36" depart="308" />
    <vehicle id="37_321" route="37" depart="321" />
    <vehicle id="38_325" route="38" depart="325" />
    <vehicle id="39_330" route="39" depart="330" />
    <vehicle id="40_386" route="40" depart="386" />
    <vehicle id="41_390" route="41" depart="390" />
    <vehicle id="42_395" route="42" depart="395" />
    <vehicle id="43_397" route="43" depart="397" />
    <vehicle id="44_398" route="44" depart="398" />
    <vehicle id="45_403" route="45" depart="403" />
    <vehicle id="46_423" route="46" depart="423" />
    <vehicle id="47_426" route="47" depart="426" />
    <vehicle id="48_455" route="48" depart="455" />
    <vehicle id="49_465" route="49" depart="465" />
    <vehicle id="50_469" route="50" depart="469" />
    <vehicle id="51_481" route="51" depart="481" />
    <vehicle id="52_482" route="52" depart="482" />
    <vehicle id="53_484" route="53" depart="484" />
    <vehicle id="54_486" route="54" depart="486" />
    <vehicle id="55_495" route="55" depart="495" />
    <vehicle id="56_496" route="56" depart="496" />
    <vehicle id="57_499" route="57" depart="499" />
    <vehicle id="58_531" route="58" depart="531" />
    <vehicle id="59_555" route="59" depart="555" />
    <vehicle id="60_557" route="60" depart="557" />
    <vehicle id="61_565" route="61" depart="565" />
    <vehicle id="62_578" route="62" depart="578" />
    <vehicle id="63_584" route="63" depart="584" />
    <vehicle id="64_588" route="64" depart="588" />
    <vehicle id="65_608" route="65" depart="608" />
    <vehicle id="66_618" route="66" depart="618" />
    <vehicle id="67_636" route="67" depart="636" />
    <vehicle id="68_647" route="68" depart="647" />
    <vehicle id="69_653" route="69" depart="653" />
    <vehicle id="70_673" route="70" depart="673" />
    <vehicle id="71_678" route="71" depart="678" />
    <vehicle id="72_695" route="72" depart="695" />
    <vehicle id="73_708" route="73" depart="708" />
    <vehicle id="74_715" route="74" depart="715" />
    <vehicle id="75_729" route="75" depart="729" />
    <vehicle id="76_748" route="76" depart="748" />
    <vehicle id="77_754" route="77" depart="754" />
    <vehicle id="78_758" route="78" depart="758" />
    <vehicle id="79_770" route="79" depart="770" />
    <vehicle id="80_783" route="80" depart="783" />
    <vehicle id="81_790" route="81" depart="790" />
    <vehicle id="82_796" route="82" depart="796" />
    <vehicle id="83_825" route="83" depart="825" />
    <vehicle id="84_839" route="84" depart="839" />
    <vehicle id="85_847" route="85" depart="847" />
    <vehicle id="86_850" route="86" depart="850" />
    <vehicle id="87_857" route="87" depart="857" />
    <vehicle id="88_866" route="88" depart="866" />
    <vehicle id="89_867" route="89" depart="867" />
    <vehicle id="90_875" route="90" depart="875" />
    <vehicle id="91_890" route="91" depart="890" />
    <vehicle id="92_895" route="92" depart="895" />
    <vehicle id="93_909" route="93" depart="909" />
    <vehicle id="94_914" route="94" depart="914" />
    <vehicle id="95_916" route="95" depart="916" />
    <vehicle id="96_918" route="96" depart="918" />
    <vehicle id="97_919" route="97" depart="919" />
    <vehicle id="98_921" route="98" depart="921" />
    <vehicle id="99_936" route="99" depart="936" />
    <vehicle id="100_937" route="100" depart="937" />
    <vehicle id="101_938" route="101" depart="938" />
    <vehicle id="102_949" route="102" depart="949" />
    <vehicle id="103_953" route="103" depart="953" />
    <vehicle id="104_958" route="104" depart="958" />
    <vehicle id="105_993" route="105" depart="993" />
    <vehicle id="106_1004" route="106" depart="1004" />
    <vehicle id="107_1018" route="107" depart="1018" />
    <vehicle id="108_1023" route="108" depart="1023" />
    <vehicle id="109_1027" route="109" depart="1027" />
    <vehicle id="110_1031" route="110" depart="1031" />
    <vehicle id="111_1032" route="111" depart="1032" />
    <vehicle id="112_1034" route="112" depart="1034" />
    <vehicle id="113_1039" route="113" depart="1039" />
    <vehicle id="114_1043" route="114" depart="1043" />
    <vehicle id="115_1072" route="115" depart="1072" />
    <vehicle id="116_1076" route="116" depart="1076" />
    <vehicle id="117_1082" route="117" depart="1082" />
    <vehicle id="118_1085" route="118" depart="1085" />
    <vehicle id="119_1129" route="119" depart="1129" />
    <vehicle id="120_1141" route="120" depart="1141" />
    <vehicle id="121_1164" route="121" depart="1164" />
    <vehicle id="122_1167" route="122" depart="1167" />
    <vehicle id="123_1175" route="123" depart="1175" />
    <vehicle id="124_1193" route="124" depart="1193" />
    <vehicle id="125_1199" route="125" depart="1199" />
    <vehicle id="126_1202" route="126" depart="1202" />
    <vehicle id="127_1203" route="127" depart="1203" />
    <vehicle id="128_1213" route="128" depart="1213" />
    <vehicle id="129_1229" route="129" depart="1229" />
    <vehicle id="130_1235" route="130" depart="1235" />
    <vehicle id="131_1240" route="131" depart="1240" />
    <vehicle id="132_1247" route="132" depart="1247" />
    <vehicle id="133_1318" route="133" depart="1318" />
    <vehicle id="134_1330" route="134" depart="1330" />
    <vehicle id="135_1332" route="135" depart="1332" />
    <vehicle id="136_1349" route="136" depart="1349" />
    <vehicle id="137_1361" route="137" depart="1361" />
    <vehicle id="138_1370" route="138" depart="1370" />
    <vehicle id="139_1371" route="139" depart="1371" />
    <vehicle id="140_1374" route="140" depart="1374" />
    <vehicle id="141_1389" route="141" depart="1389" />
    <vehicle id="142_1408" route="142" depart="1408" />
    <vehicle id="143_1418" route="143" depart="1418" />
    <vehicle id="144_1424" route="144" depart="1424" />
    <vehicle id="145_1435" route="145" depart="1435" />
    <vehicle id="146_1442" route="146" depart="1442" />
    <vehicle id="147_1450" route="147" depart="1450" />
    <vehicle id="148_1452" route="148" depart="1452" />
    <vehicle id="149_1471" route="149" depart="1471" />
    <vehicle id="150_1474" route="150" depart="1474" />
    <vehicle id="151_1503" route="151" depart="1503" />
    <vehicle id="152_1512" route="152" depart="1512" />
    <vehicle id="153_1534" route="153" depart="1534" />
    <vehicle id="154_1553" route="154" depart="1553" />
    <vehicle id="155_1563" route="155" depart="1563" />
    <vehicle id="156_1569" route="156" depart="1569" />
    <vehicle id="157_1575" route="157" depart="1575" />
    <vehicle id="158_1580" route="158" depart="1580" />
    <vehicle id="159_1587" route="159" depart="1587" />
    <vehicle id="160_1598" route="160" depart="1598" />
    <vehicle id="161_1603" route="161" depart="1603" />
    <vehicle id="162_1608" route="162" depart="1608" />
    <vehicle id="163_1625" route="163" depart="1625" />
    <vehicle id="164_1630" route="164" depart="1630" />
    <vehicle id="165_1642" route="165" depart="1642" />
    <vehicle id="166_1651" route="166" depart="1651" />
    <vehicle id="167_1706" route="167" depart="1706" />
    <vehicle id="168_1716" route="168" depart="1716" />
    <vehicle id="169_1727" route="169" depart="1727" />
    <vehicle id="170_1729" route="170" depart="1729" />
    <vehicle id="171_1730" route="171" depart="1730" />
    <vehicle id="172_1737" route="172" depart="1737" />
    <vehicle id="173_1739" route="173" depart="1739" />
    <vehicle id="174_1744" route="174" depart="1744" />
    <vehicle id="175_1745" route="175" depart="1745" />
    <vehicle id="176_1746" route="176" depart="1746" />
    <vehicle id="177_1752" route="177" depart="1752" />
    <vehicle id="178_1756" route="178" depart="1756" />
    <vehicle id="179_1783" route="179" depart="1783" />
    <vehicle id="180_1784" route="180" depart="1784" />
    <vehicle id="181_1792" route="181" depart="1792" />
    <vehicle id="182_1804" route="182" depart="1804" />
    <vehicle id="183_1811" route="183" depart="1811" />
    <vehicle id="184_1826" route="184" depart="1826" />
    <vehicle id="185_1829" route="185" depart="1829" />
    <vehicle id="186_1846" route="186" depart="1846" />
    <vehicle id="187_1853" route="187" depart="1853" />
    <vehicle id="188_1869" route="188" depart="1869" />
    <vehicle id="189_1875" route="189" depart="1875" />
    <vehicle id="190_1889" route="190" depart="1889" />
    <vehicle id="191_1900" route="191" depart="1900" />
    <vehicle id="192_1925" route="192" depart="1925" />
    <vehicle id="193_1932" route="193" depart="1932" />
    <vehicle id="194_1942" route="194" depart="1942" />
    <vehicle id="195_1943" route="195" depart="1943" />
    <vehicle id="196_1954" route="196" depart="1954" />
    <vehicle id="197_1962" route="197" depart="1962" />
    <vehicle id="198_1973" route="198" depart="1973" />
    <vehicle id="199_1977" route="199" depart="1977" />
    <vehicle id="200_1986" route="200" depart="1986" />
    <vehicle id="201_1990" route="201" depart="1990" />
    <vehicle id="202_1993" route="202" depart="1993" />
    <vehicle id="203_2008" route="203" depart="2008" />
    <vehicle id="204_2017" route="204" depart="2017" />
    <vehicle id="205_2027" route="205" depart="2027" />
    <vehicle id="206_2032" route="206" depart="2032" />
    <vehicle id="207_2041" route="207" depart="2041" />
    <vehicle id="208_2070" route="208" depart="2070" />
    <vehicle id="209_2091" route="209" depart="2091" />
    <vehicle id="210_2113" route="210" depart="2113" />
    <vehicle id="211_2134" route="211" depart="2134" />
    <vehicle id="212_2142" route="212" depart="2142" />
    <vehicle id="213_2143" route="213" depart="2143" />
    <vehicle id="214_2154" route="214" depart="2154" />
    <vehicle id="215_2167" route="215" depart="2167" />
    <vehicle id="216_2170" route="216" depart="2170" />
    <vehicle id="217_2176" route="217" depart="2176" />
    <vehicle id="218_2181" route="218" depart="2181" />
    <vehicle id="219_2200" route="219" depart="2200" />
    <vehicle id="220_2202" route="220" depart="2202" />
    <vehicle id="221_2215" route="221" depart="2215" />
    <vehicle id="222_2217" route="222" depart="2217" />
    <vehicle id="223_2225" route="223" depart="2225" />
    <vehicle id="224_2226" route="224" depart="2226" />
    <vehicle id="225_2227" route="225" depart="2227" />
    <vehicle id="226_2238" route="226" depart="2238" />
    <vehicle id="227_2276" route="227" depart="2276" />
    <vehicle id="228_2284" route="228" depart="2284" />
    <vehicle id="229_2299" route="229" depart="2299" />
    <vehicle id="230_2305" route="230" depart="2305" />
    <vehicle id="231_2316" route="231" depart="2316" />
    <vehicle id="232_2329" route="232" depart="2329" />
    <vehicle id="233_2335" route="233" depart="2335" />
    <vehicle id="234_2346" route="234" depart="2346" />
    <vehicle id="235_2355" route="235" depart="2355" />
    <vehicle id="236_2368" route="236" depart="2368" />
    <vehicle id="237_2387" route="237" depart="2387" />
    <vehicle id="238_2391" route="238" depart="2391" />
    <vehicle id="239_2414" route="239" depart="2414" />
    <vehicle id="240_2446" route="240" depart="2446" />
    <vehicle id="241_2447" route="241" depart="2447" />
    <vehicle id="242_2451" route="242" depart="2451" />
    <vehicle id="243_2461" route="243" depart="2461" />
    <vehicle id="244_2470" route="244" depart="2470" />
    <vehicle id="245_2482" route="245" depart="2482" />
    <vehicle id="246_2485" route="246" depart="2485" />
    <vehicle id="247_2496" route="247" depart="2496" />
    <vehicle id="248_2499" route="248" depart="2499" />
    <vehicle id="249_2501" route="249" depart="2501" />
    <vehicle id="250_2504" route="250" depart="2504" />
    <vehicle id="251_2511" route="251" depart="2511" />
    <vehicle id="252_2514" route="252" depart="2514" />
    <vehicle id="253_2515" route="253" depart="2515" />
    <vehicle id="254_2546" route="254" depart="2546" />
    <vehicle id="255_2547" route="255" depart="2547" />
    <vehicle id="256_2556" route="256" depart="2556" />
    <vehicle id="257_2557" route="257" depart="2557" />
    <vehicle id="258_2563" route="258" depart="2563" />
    <vehicle id="259_2566" route="259" depart="2566" />
    <vehicle id="260_2586" route="260" depart="2586" />
    <vehicle id="261_2594" route="261" depart="2594" />
    <vehicle id="262_2602" route="262" depart="2602" />
    <vehicle id="263_2605" route="263" depart="2605" />
    <vehicle id="264_2611" route="264" depart="2611" />
    <vehicle id="265_2618" route="265" depart="2618" />
    <vehicle id="266_2620" route="266" depart="2620" />
    <vehicle id="267_2623" route="267" depart="2623" />
    <vehicle id="268_2625" route="268" depart="2625" />
    <vehicle id="269_2629" route="269" depart="2629" />
    <vehicle id="270_2637" route="270" depart="2637" />
    <vehicle id="271_2664" route="271" depart="2664" />
    <vehicle id="272_2702" route="272" depart="2702" />
    <vehicle id="273_2705" route="273" depart="2705" />
    <vehicle id="274_2713" route="274" depart="2713" />
    <vehicle id="275_2721" route="275" depart="2721" />
    <vehicle id="276_2741" route="276" depart="2741" />
    <vehicle id="277_2749" route="277" depart="2749" />
    <vehicle id="278_2755" route="278" depart="2755" />
    <vehicle id="279_2826" route="279" depart="2826" />
    <vehicle id="280_2831" route="280" depart="2831" />
    <vehicle id="281_2835" route="281" depart="2835" />
    <vehicle id="282_2843" route="282" depart="2843" />
    <vehicle id="283_2863" route="283" depart="2863" />
    <vehicle id="284_2869" route="284" depart="2869" />
    <vehicle id="285_2877" route="285" depart="2877" />
    <vehicle id="286_2886" route="286" depart="2886" />
    <vehicle id="287_2894" route="287" depart="2894" />
    <vehicle id="288_2897" route="288" depart="2897" />
    <vehicle id="289_2903" route="289" depart="2903" />
    <vehicle id="290_2921" route="290" depart="2921" />
    <vehicle id="291_2927" route="291" depart="2927" />
    <vehicle id="292_2932" route="292" depart="2932" />
    <vehicle id="293_2954" route="293" depart="2954" />
    <vehicle id="294_2974" route="294" depart="2974" />
    <vehicle id="295_3034" route="295" depart="3034" />
    <vehicle id="296_3043" route="296" depart="3043" />
    <vehicle id="297_3053" route="297" depart="3053" />
    <vehicle id="298_3056" route="298" depart="3056" />
    <vehicle id="299_3069" route="299" depart="3069" />
    <vehicle id="300_3071" route="300" depart="3071" />
    <vehicle id="301_3094" route="301" depart="3094" />
    <vehicle id="302_3097" route="302" depart="3097" />
    <vehicle id="303_3101" route="303" depart="3101" />
    <vehicle id="304_3115" route="304" depart="3115" />
    <vehicle id="305_3116" route="305" depart="3116" />
    <vehicle id="306_3160" route="306" depart="3160" />
    <vehicle id="307_3165" route="307" depart="3165" />
    <vehicle id="308_3166" route="308" depart="3166" />
    <vehicle id="309_3174" route="309" depart="3174" />
    <vehicle id="310_3176" route="310" depart="3176" />
    <vehicle id="311_3196" route="311" depart="3196" />
    <vehicle id="312_3202" route="312" depart="3202" />
    <vehicle id="313_3225" route="313" depart="3225" />