<?xml version="1.0" encoding="UTF-8"?>

<!-- generated on Tue Oct 22 14:49:50 2019 by Eclipse SUMO netconvert Version 1.2.0

<configuration xmlns:xsi="http://www.w3.org/2001/XMLSchema-instance" xsi:noNamespaceSchemaLocation="http://sumo.dlr.de/xsd/netconvertConfiguration.xsd">

    <input>
        <node-files value="vertical.nod.xml"/>
        <edge-files value="vertical.edg.xml"/>
        <connection-files value="vertical.con.xml"/>
    </input>

    <output>
        <output-file value="vertical.net.xml"/>
    </output>

</configuration>
-->

<net version="1.1" junctionCornerDetail="5" limitTurnSpeed="5.50" xmlns:xsi="http://www.w3.org/2001/XMLSchema-instance" xsi:noNamespaceSchemaLocation="http://sumo.dlr.de/xsd/net_file.xsd">

    <location netOffset="500.00,1000.00" convBoundary="0.00,0.00,1000.00,1500.00" origBoundary="-500.00,-1000.00,500.00,500.00" projParameter="!"/>

    <edge id=":0_0" function="internal">
        <lane id=":0_0_0" index="0" speed="15.28" length="14.40" shape="498.40,1007.20 498.40,992.80"/>
    </edge>
    <edge id=":0_1" function="internal">
        <lane id=":0_1_0" index="0" speed="15.28" length="14.40" shape="507.20,1001.60 492.80,1001.60"/>
    </edge>
    <edge id=":0_2" function="internal">
        <lane id=":0_2_0" index="0" speed="15.28" length="14.40" shape="501.60,992.80 501.60,1007.20"/>
    </edge>
    <edge id=":0_3" function="internal">
        <lane id=":0_3_0" index="0" speed="15.28" length="14.40" shape="492.80,998.40 507.20,998.40"/>
    </edge>
    <edge id=":1_0" function="internal">
        <lane id=":1_0_0" index="0" speed="11.11" length="14.40" shape="498.40,507.20 498.40,492.80"/>
    </edge>
    <edge id=":1_1" function="internal">
        <lane id=":1_1_0" index="0" speed="15.28" length="14.40" shape="507.20,501.60 492.80,501.60"/>
    </edge>
    <edge id=":1_2" function="internal">
        <lane id=":1_2_0" index="0" speed="19.44" length="14.40" shape="501.60,492.80 501.60,507.20"/>
    </edge>
    <edge id=":1_3" function="internal">
        <lane id=":1_3_0" index="0" speed="15.28" length="14.40" shape="492.80,498.40 507.20,498.40"/>
    </edge>
    <edge id=":2_0" function="internal">
        <lane id=":2_0_0" index="0" speed="3.65" length="4.67" shape="1000.00,998.40 1001.20,999.20 1001.60,1000.00 1001.20,1000.80 1000.00,1001.60"/>
    </edge>
    <edge id=":3_0" function="internal">
        <lane id=":3_0_0" index="0" speed="3.65" length="4.67" shape="0.00,1001.60 -1.20,1000.80 -1.60,1000.00 -1.20,999.20 0.00,998.40"/>
    </edge>
    <edge id=":4_0" function="internal">
        <lane id=":4_0_0" index="0" speed="3.65" length="4.67" shape="501.60,1500.00 500.80,1501.20 500.00,1501.60 499.20,1501.20 498.40,1500.00"/>
    </edge>
    <edge id=":5_0" function="internal">
        <lane id=":5_0_0" index="0" speed="3.65" length="4.67" shape="498.40,0.00 499.20,-1.20 500.00,-1.60 500.80,-1.20 501.60,0.00"/>
    </edge>
    <edge id=":6_0" function="internal">
        <lane id=":6_0_0" index="0" speed="3.65" length="4.67" shape="0.00,501.60 -1.20,500.80 -1.60,500.00 -1.20,499.20 0.00,498.40"/>
    </edge>
    <edge id=":7_0" function="internal">
        <lane id=":7_0_0" index="0" speed="3.65" length="4.67" shape="1000.00,498.40 1001.20,499.20 1001.60,500.00 1001.20,500.80 1000.00,501.60"/>
    </edge>

    <edge id="1i" from="1" to="0" priority="78">
        <lane id="1i_0" index="0" speed="19.44" length="485.60" shape="501.60,507.20 501.60,992.80"/>
    </edge>
    <edge id="1o" from="0" to="1" priority="46">
        <lane id="1o_0" index="0" speed="11.11" length="485.60" shape="498.40,992.80 498.40,507.20"/>
    </edge>
    <edge id="2i" from="2" to="0" priority="78">
        <lane id="2i_0" index="0" speed="19.44" length="492.80" shape="1000.00,1001.60 507.20,1001.60"/>
    </edge>
    <edge id="2o" from="0" to="2" priority="46">
        <lane id="2o_0" index="0" speed="11.11" length="492.80" shape="507.20,998.40 1000.00,998.40"/>
    </edge>
    <edge id="3i" from="3" to="0" priority="78">
        <lane id="3i_0" index="0" speed="19.44" length="492.80" shape="0.00,998.40 492.80,998.40"/>
    </edge>
    <edge id="3o" from="0" to="3" priority="46">
        <lane id="3o_0" index="0" speed="11.11" length="492.80" shape="492.80,1001.60 0.00,1001.60"/>
    </edge>
    <edge id="4i" from="4" to="0" priority="78">
        <lane id="4i_0" index="0" speed="19.44" length="492.80" shape="498.40,1500.00 498.40,1007.20"/>
    </edge>
    <edge id="4o" from="0" to="4" priority="46">
        <lane id="4o_0" index="0" speed="11.11" length="492.80" shape="501.60,1007.20 501.60,1500.00"/>
    </edge>
    <edge id="5i" from="5" to="1" priority="78">
        <lane id="5i_0" index="0" speed="19.44" length="492.80" shape="501.60,0.00 501.60,492.80"/>
    </edge>
    <edge id="5o" from="1" to="5" priority="46">
        <lane id="5o_0" index="0" speed="11.11" length="492.80" shape="498.40,492.80 498.40,0.00"/>
    </edge>
    <edge id="6i" from="6" to="1" priority="78">
        <lane id="6i_0" index="0" speed="19.44" length="492.80" shape="0.00,498.40 492.80,498.40"/>
    </edge>
    <edge id="6o" from="1" to="6" priority="46">
        <lane id="6o_0" index="0" speed="11.11" length="492.80" shape="492.80,501.60 0.00,501.60"/>
    </edge>
    <edge id="7i" from="7" to="1" priority="78">
        <lane id="7i_0" index="0" speed="19.44" length="492.80" shape="1000.00,501.60 507.20,501.60"/>
    </edge>
    <edge id="7o" from="1" to="7" priority="46">
        <lane id="7o_0" index="0" speed="11.11" length="492.80" shape="507.20,498.40 1000.00,498.40"/>
    </edge>

    <tlLogic id="0" type="static" programID="0" offset="0">
        <phase duration="40" state="GrGr"/>
        <phase duration="5"  state="yryr"/>
        <phase duration="40" state="rGrG"/>
        <phase duration="5"  state="ryry"/>
    </tlLogic>
    <tlLogic id="1" type="static" programID="0" offset="0">
        <phase duration="40" state="GrGr"/>
        <phase duration="5"  state="yryr"/>
        <phase duration="40" state="rGrG"/>
        <phase duration="5"  state="ryry"/>
    </tlLogic>

    <junction id="0" type="traffic_light" x="500.00" y="1000.00" incLanes="4i_0 2i_0 1i_0 3i_0" intLanes=":0_0_0 :0_1_0 :0_2_0 :0_3_0" shape="496.80,1007.20 503.20,1007.20 503.64,1004.98 504.20,1004.20 504.98,1003.64 505.98,1003.31 507.20,1003.20 507.20,996.80 504.98,996.36 504.20,995.80 503.64,995.02 503.31,994.02 503.20,992.80 496.80,992.80 496.36,995.02 495.80,995.80 495.02,996.36 494.02,996.69 492.80,996.80 492.80,1003.20 495.02,1003.64 495.80,1004.20 496.36,1004.98 496.69,1005.98">
        <request index="0" response="0000" foes="1010" cont="0"/>
        <request index="1" response="0101" foes="0101" cont="0"/>
        <request index="2" response="0000" foes="1010" cont="0"/>
        <request index="3" response="0101" foes="0101" cont="0"/>
    </junction>
    <junction id="1" type="traffic_light" x="500.00" y="500.00" incLanes="1o_0 7i_0 5i_0 6i_0" intLanes=":1_0_0 :1_1_0 :1_2_0 :1_3_0" shape="496.80,507.20 503.20,507.20 503.64,504.98 504.20,504.20 504.98,503.64 505.98,503.31 507.20,503.20 507.20,496.80 504.98,496.36 504.20,495.80 503.64,495.02 503.31,494.02 503.20,492.80 496.80,492.80 496.36,495.02 495.80,495.80 495.02,496.36 494.02,496.69 492.80,496.80 492.80,503.20 495.02,503.64 495.80,504.20 496.36,504.98 496.69,505.98">
        <request index="0" response="1010" foes="1010" cont="0"/>
        <request index="1" response="0000" foes="0101" cont="0"/>
        <request index="2" response="1010" foes="1010" cont="0"/>
        <request index="3" response="0000" foes="0101" cont="0"/>
    </junction>
    <junction id="2" type="priority" x="1000.00" y="1000.00" incLanes="2o_0" intLanes=":2_0_0" shape="1000.00,1000.00 1000.00,996.80 1000.00,1000.00">
        <request index="0" response="0" foes="0" cont="0"/>
    </junction>
    <junction id="3" type="priority" x="0.00" y="1000.00" incLanes="3o_0" intLanes=":3_0_0" shape="0.00,1000.00 0.00,1003.20 0.00,1000.00">
        <request index="0" response="0" foes="0" cont="0"/>
    </junction>
    <junction id="4" type="priority" x="500.00" y="1500.00" incLanes="4o_0" intLanes=":4_0_0" shape="500.00,1500.00 503.20,1500.00 500.00,1500.00">
        <request index="0" response="0" foes="0" cont="0"/>
    </junction>
    <junction id="5" type="priority" x="500.00" y="0.00" incLanes="5o_0" intLanes=":5_0_0" shape="500.00,0.00 496.80,0.00 500.00,0.00">
        <request index="0" response="0" foes="0" cont="0"/>
    </junction>
    <junction id="6" type="priority" x="0.00" y="500.00" incLanes="6o_0" intLanes=":6_0_0" shape="0.00,500.00 0.00,503.20 0.00,500.00">
        <request index="0" response="0" foes="0" cont="0"/>
    </junction>
    <junction id="7" type="priority" x="1000.00" y="500.00" incLanes="7o_0" intLanes=":7_0_0" shape="1000.00,500.00 1000.00,496.80 1000.00,500.00">
        <request index="0" response="0" foes="0" cont="0"/>
    </junction>

    <connection from="1i" to="4o" fromLane="0" toLane="0" via=":0_2_0" tl="0" linkIndex="2" dir="s" state="O"/>
    <connection from="1o" to="5o" fromLane="0" toLane="0" via=":1_0_0" tl="1" linkIndex="0" dir="s" state="o"/>
    <connection from="2i" to="3o" fromLane="0" toLane="0" via=":0_1_0" tl="0" linkIndex="1" dir="s" state="o"/>
    <connection from="2o" to="2i" fromLane="0" toLane="0" via=":2_0_0" dir="t" state="M"/>
    <connection from="3i" to="2o" fromLane="0" toLane="0" via=":0_3_0" tl="0" linkIndex="3" dir="s" state="o"/>
    <connection from="3o" to="3i" fromLane="0" toLane="0" via=":3_0_0" dir="t" state="M"/>
    <connection from="4i" to="1o" fromLane="0" toLane="0" via=":0_0_0" tl="0" linkIndex="0" dir="s" state="O"/>
    <connection from="4o" to="4i" fromLane="0" toLane="0" via=":4_0_0" dir="t" state="M"/>
    <connection from="5i" to="1i" fromLane="0" toLane="0" via=":1_2_0" tl="1" linkIndex="2" dir="s" state="o"/>
    <connection from="5o" to="5i" fromLane="0" toLane="0" via=":5_0_0" dir="t" state="M"/>
    <connection from="6i" to="7o" fromLane="0" toLane="0" via=":1_3_0" tl="1" linkIndex="3" dir="s" state="O"/>
    <connection from="6o" to="6i" fromLane="0" toLane="0" via=":6_0_0" dir="t" state="M"/>
    <connection from="7i" to="6o" fromLane="0" toLane="0" via=":1_1_0" tl="1" linkIndex="1" dir="s" state="O"/>
    <connection from="7o" to="7i" fromLane="0" toLane="0" via=":7_0_0" dir="t" state="M"/>

    <connection from=":0_0" to="1o" fromLane="0" toLane="0" dir="s" state="M"/>
    <connection from=":0_1" to="3o" fromLane="0" toLane="0" dir="s" state="M"/>
    <connection from=":0_2" to="4o" fromLane="0" toLane="0" dir="s" state="M"/>
    <connection from=":0_3" to="2o" fromLane="0" toLane="0" dir="s" state="M"/>
    <connection from=":1_0" to="5o" fromLane="0" toLane="0" dir="s" state="M"/>
    <connection from=":1_1" to="6o" fromLane="0" toLane="0" dir="s" state="M"/>
    <connection from=":1_2" to="1i" fromLane="0" toLane="0" dir="s" state="M"/>
    <connection from=":1_3" to="7o" fromLane="0" toLane="0" dir="s" state="M"/>
    <connection from=":2_0" to="2i" fromLane="0" toLane="0" dir="t" state="M"/>
    <connection from=":3_0" to="3i" fromLane="0" toLane="0" dir="t" state="M"/>
    <connection from=":4_0" to="4i" fromLane="0" toLane="0" dir="t" state="M"/>
    <connection from=":5_0" to="5i" fromLane="0" toLane="0" dir="t" state="M"/>
    <connection from=":6_0" to="6i" fromLane="0" toLane="0" dir="t" state="M"/>
    <connection from=":7_0" to="7i" fromLane="0" toLane="0" dir="t" state="M"/>

</net>
