<routes>

    <route id="1" edges="165 51 110"/>
    <route id="2" edges="101 15 516"/>
    <route id="3" edges="80 01 12 23 313"/>
    <route id="4" edges="154 40 09"/>
    <route id="5" edges="123 37 718"/>
    <route id="6" edges="133 32 21 10 08"/>
    <route id="7" edges="154 40 09"/>
    <route id="8" edges="165 51 110"/>
    <route id="9" edges="165 51 110"/>
    <route id="10" edges="187 73 312"/>
    <route id="11" edges="101 15 516"/>
    <route id="12" edges="154 40 09"/>
    <route id="13" edges="101 15 516"/>
    <route id="14" edges="154 40 09"/>
    <route id="15" edges="154 40 09"/>
    <route id="16" edges="154 40 09"/>
    <route id="17" edges="144 45 56 67 719"/>
    <route id="18" edges="176 62 211"/>
    <route id="19" edges="123 37 718"/>
    <route id="20" edges="123 37 718"/>
    <route id="21" edges="101 15 516"/>
    <route id="22" edges="80 01 12 23 313"/>
    <route id="23" edges="80 01 12 23 313"/>
    <route id="24" edges="165 51 110"/>
    <route id="25" edges="187 73 312"/>
    <route id="26" edges="112 26 617"/>
    <route id="27" edges="187 73 312"/>
    <route id="28" edges="197 76 65 54 414"/>
    <route id="29" edges="123 37 718"/>
    <route id="30" edges="90 04 415"/>
    <route id="31" edges="187 73 312"/>
    <route id="32" edges="154 40 09"/>
    <route id="33" edges="80 01 12 23 313"/>
    <route id="34" edges="112 26 617"/>
    <route id="35" edges="123 37 718"/>
    <route id="36" edges="101 15 516"/>
    <route id="37" edges="112 26 617"/>
    <route id="38" edges="144 45 56 67 719"/>
    <route id="39" edges="123 37 718"/>
    <route id="40" edges="112 26 617"/>
    <route id="41" edges="123 37 718"/>
    <route id="42" edges="90 04 415"/>
    <route id="43" edges="154 40 09"/>
    <route id="44" edges="176 62 211"/>
    <route id="45" edges="176 62 211"/>
    <route id="46" edges="165 51 110"/>
    <route id="47" edges="176 62 211"/>
    <route id="48" edges="101 15 516"/>
    <route id="49" edges="80 01 12 23 313"/>
    <route id="50" edges="80 01 12 23 313"/>
    <route id="51" edges="165 51 110"/>
    <route id="52" edges="133 32 21 10 08"/>
    <route id="53" edges="112 26 617"/>
    <route id="54" edges="154 40 09"/>
    <route id="55" edges="112 26 617"/>
    <route id="56" edges="123 37 718"/>
    <route id="57" edges="176 62 211"/>
    <route id="58" edges="80 01 12 23 313"/>
    <route id="59" edges="101 15 516"/>
    <route id="60" edges="123 37 718"/>
    <route id="61" edges="90 04 415"/>
    <route id="62" edges="197 76 65 54 414"/>
    <route id="63" edges="123 37 718"/>
    <route id="64" edges="197 76 65 54 414"/>
    <route id="65" edges="90 04 415"/>
    <route id="66" edges="165 51 110"/>
    <route id="67" edges="112 26 617"/>
    <route id="68" edges="80 01 12 23 313"/>
    <route id="69" edges="154 40 09"/>
    <route id="70" edges="123 37 718"/>
    <route id="71" edges="80 01 12 23 313"/>
    <route id="72" edges="133 32 21 10 08"/>
    <route id="73" edges="187 73 312"/>
    <route id="74" edges="176 62 211"/>
    <route id="75" edges="80 01 12 23 313"/>
    <route id="76" edges="123 37 718"/>
    <route id="77" edges="133 32 21 10 08"/>
    <route id="78" edges="90 04 415"/>
    <route id="79" edges="144 45 56 67 719"/>
    <route id="80" edges="133 32 21 10 08"/>
    <route id="81" edges="80 01 12 23 313"/>
    <route id="82" edges="144 45 56 67 719"/>
    <route id="83" edges="144 45 56 67 719"/>
    <route id="84" edges="133 32 21 10 08"/>
    <route id="85" edges="144 45 56 67 719"/>
    <route id="86" edges="187 73 312"/>
    <route id="87" edges="197 76 65 54 414"/>
    <route id="88" edges="80 01 12 23 313"/>
    <route id="89" edges="123 37 718"/>
    <route id="90" edges="176 62 211"/>
    <route id="91" edges="144 45 56 67 719"/>
    <route id="92" edges="176 62 211"/>
    <route id="93" edges="154 40 09"/>
    <route id="94" edges="144 45 56 67 719"/>
    <route id="95" edges="133 32 21 10 08"/>
    <route id="96" edges="144 45 56 67 719"/>
    <route id="97" edges="144 45 56 67 719"/>
    <route id="98" edges="101 15 516"/>
    <route id="99" edges="144 45 56 67 719"/>
    <route id="100" edges="165 51 110"/>
    <route id="101" edges="112 26 617"/>
    <route id="102" edges="90 04 415"/>
    <route id="103" edges="80 01 12 23 313"/>
    <route id="104" edges="154 40 09"/>
    <route id="105" edges="154 40 09"/>
    <route id="106" edges="80 01 12 23 313"/>
    <route id="107" edges="90 04 415"/>
    <route id="108" edges="154 40 09"/>
    <route id="109" edges="80 01 12 23 313"/>
    <route id="110" edges="112 26 617"/>
    <route id="111" edges="90 04 415"/>
    <route id="112" edges="197 76 65 54 414"/>
    <route id="113" edges="133 32 21 10 08"/>
    <route id="114" edges="165 51 110"/>
    <route id="115" edges="165 51 110"/>
    <route id="116" edges="90 04 415"/>
    <route id="117" edges="187 73 312"/>
    <route id="118" edges="90 04 415"/>
    <route id="119" edges="90 04 415"/>
    <route id="120" edges="176 62 211"/>
    <route id="121" edges="80 01 12 23 313"/>
    <route id="122" edges="123 37 718"/>
    <route id="123" edges="90 04 415"/>
    <route id="124" edges="187 73 312"/>
    <route id="125" edges="80 01 12 23 313"/>
    <route id="126" edges="197 76 65 54 414"/>
    <route id="127" edges="165 51 110"/>
    <route id="128" edges="165 51 110"/>
    <route id="129" edges="123 37 718"/>
    <route id="130" edges="80 01 12 23 313"/>
    <route id="131" edges="123 37 718"/>
    <route id="132" edges="101 15 516"/>
    <route id="133" edges="154 40 09"/>
    <route id="134" edges="187 73 312"/>
    <route id="135" edges="187 73 312"/>
    <route id="136" edges="123 37 718"/>
    <route id="137" edges="133 32 21 10 08"/>
    <route id="138" edges="123 37 718"/>
    <route id="139" edges="144 45 56 67 719"/>
    <route id="140" edges="154 40 09"/>
    <route id="141" edges="197 76 65 54 414"/>
    <route id="142" edges="176 62 211"/>
    <route id="143" edges="197 76 65 54 414"/>
    <route id="144" edges="144 45 56 67 719"/>
    <route id="145" edges="123 37 718"/>
    <route id="146" edges="154 40 09"/>
    <route id="147" edges="133 32 21 10 08"/>
    <route id="148" edges="133 32 21 10 08"/>
    <route id="149" edges="144 45 56 67 719"/>
    <route id="150" edges="133 32 21 10 08"/>
    <route id="151" edges="123 37 718"/>
    <route id="152" edges="101 15 516"/>
    <route id="153" edges="101 15 516"/>
    <route id="154" edges="133 32 21 10 08"/>
    <route id="155" edges="187 73 312"/>
    <route id="156" edges="176 62 211"/>
    <route id="157" edges="144 45 56 67 719"/>
    <route id="158" edges="154 40 09"/>
    <route id="159" edges="144 45 56 67 719"/>
    <route id="160" edges="165 51 110"/>
    <route id="161" edges="112 26 617"/>
    <route id="162" edges="133 32 21 10 08"/>
    <route id="163" edges="80 01 12 23 313"/>
    <route id="164" edges="101 15 516"/>
    <route id="165" edges="144 45 56 67 719"/>
    <route id="166" edges="112 26 617"/>
    <route id="167" edges="144 45 56 67 719"/>
    <route id="168" edges="133 32 21 10 08"/>
    <route id="169" edges="197 76 65 54 414"/>
    <route id="170" edges="144 45 56 67 719"/>
    <route id="171" edges="133 32 21 10 08"/>
    <route id="172" edges="176 62 211"/>
    <route id="173" edges="101 15 516"/>
    <route id="174" edges="144 45 56 67 719"/>
    <route id="175" edges="176 62 211"/>
    <route id="176" edges="197 76 65 54 414"/>
    <route id="177" edges="176 62 211"/>
    <route id="178" edges="144 45 56 67 719"/>
    <route id="179" edges="187 73 312"/>
    <route id="180" edges="165 51 110"/>
    <route id="181" edges="165 51 110"/>
    <route id="182" edges="101 15 516"/>
    <route id="183" edges="123 37 718"/>
    <route id="184" edges="123 37 718"/>
    <route id="185" edges="187 73 312"/>
    <route id="186" edges="187 73 312"/>
    <route id="187" edges="112 26 617"/>
    <route id="188" edges="123 37 718"/>
    <route id="189" edges="133 32 21 10 08"/>
    <route id="190" edges="154 40 09"/>
    <route id="191" edges="80 01 12 23 313"/>
    <route id="192" edges="123 37 718"/>
    <route id="193" edges="154 40 09"/>
    <route id="194" edges="133 32 21 10 08"/>
    <route id="195" edges="101 15 516"/>
    <route id="196" edges="144 45 56 67 719"/>
    <route id="197" edges="176 62 211"/>
    <route id="198" edges="165 51 110"/>
    <route id="199" edges="154 40 09"/>
    <route id="200" edges="154 40 09"/>
    <route id="201" edges="187 73 312"/>
    <route id="202" edges="123 37 718"/>
    <route id="203" edges="133 32 21 10 08"/>
    <route id="204" edges="123 37 718"/>
    <route id="205" edges="101 15 516"/>
    <route id="206" edges="165 51 110"/>
    <route id="207" edges="144 45 56 67 719"/>
    <route id="208" edges="187 73 312"/>
    <route id="209" edges="101 15 516"/>
    <route id="210" edges="165 51 110"/>
    <route id="211" edges="101 15 516"/>
    <route id="212" edges="154 40 09"/>
    <route id="213" edges="80 01 12 23 313"/>
    <route id="214" edges="112 26 617"/>
    <route id="215" edges="187 73 312"/>
    <route id="216" edges="80 01 12 23 313"/>
    <route id="217" edges="112 26 617"/>
    <route id="218" edges="165 51 110"/>
    <route id="219" edges="90 04 415"/>
    <route id="220" edges="101 15 516"/>
    <route id="221" edges="123 37 718"/>
    <route id="222" edges="197 76 65 54 414"/>
    <route id="223" edges="101 15 516"/>
    <route id="224" edges="90 04 415"/>
    <route id="225" edges="133 32 21 10 08"/>
    <route id="226" edges="123 37 718"/>
    <route id="227" edges="133 32 21 10 08"/>
    <route id="228" edges="144 45 56 67 719"/>
    <route id="229" edges="165 51 110"/>
    <route id="230" edges="112 26 617"/>
    <route id="231" edges="144 45 56 67 719"/>
    <route id="232" edges="133 32 21 10 08"/>
    <route id="233" edges="90 04 415"/>
    <route id="234" edges="101 15 516"/>
    <route id="235" edges="112 26 617"/>
    <route id="236" edges="101 15 516"/>
    <route id="237" edges="101 15 516"/>
    <route id="238" edges="176 62 211"/>
    <route id="239" edges="133 32 21 10 08"/>
    <route id="240" edges="80 01 12 23 313"/>
    <route id="241" edges="144 45 56 67 719"/>
    <route id="242" edges="187 73 312"/>
    <route id="243" edges="176 62 211"/>
    <route id="244" edges="197 76 65 54 414"/>
    <route id="245" edges="144 45 56 67 719"/>
    <route id="246" edges="165 51 110"/>
    <route id="247" edges="187 73 312"/>
    <route id="248" edges="133 32 21 10 08"/>
    <route id="249" edges="123 37 718"/>
    <route id="250" edges="197 76 65 54 414"/>
    <route id="251" edges="176 62 211"/>
    <route id="252" edges="197 76 65 54 414"/>
    <route id="253" edges="187 73 312"/>
    <route id="254" edges="176 62 211"/>
    <route id="255" edges="80 01 12 23 313"/>
    <route id="256" edges="133 32 21 10 08"/>
    <route id="257" edges="165 51 110"/>
    <route id="258" edges="80 01 12 23 313"/>
    <route id="259" edges="187 73 312"/>
    <route id="260" edges="133 32 21 10 08"/>
    <route id="261" edges="80 01 12 23 313"/>
    <route id="262" edges="101 15 516"/>
    <route id="263" edges="154 40 09"/>
    <route id="264" edges="165 51 110"/>
    <route id="265" edges="144 45 56 67 719"/>
    <route id="266" edges="123 37 718"/>
    <route id="267" edges="176 62 211"/>
    <route id="268" edges="197 76 65 54 414"/>
    <route id="269" edges="112 26 617"/>
    <route id="270" edges="101 15 516"/>
    <route id="271" edges="90 04 415"/>
    <route id="272" edges="90 04 415"/>
    <route id="273" edges="112 26 617"/>
    <route id="274" edges="144 45 56 67 719"/>
    <route id="275" edges="123 37 718"/>
    <route id="276" edges="154 40 09"/>
    <route id="277" edges="123 37 718"/>
    <route id="278" edges="165 51 110"/>
    <route id="279" edges="187 73 312"/>
    <route id="280" edges="144 45 56 67 719"/>
    <route id="281" edges="123 37 718"/>
    <route id="282" edges="123 37 718"/>
    <route id="283" edges="154 40 09"/>
    <route id="284" edges="187 73 312"/>
    <route id="285" edges="165 51 110"/>
    <route id="286" edges="80 01 12 23 313"/>
    <route id="287" edges="154 40 09"/>
    <route id="288" edges="165 51 110"/>
    <route id="289" edges="90 04 415"/>
    <route id="290" edges="80 01 12 23 313"/>
    <route id="291" edges="197 76 65 54 414"/>
    <route id="292" edges="165 51 110"/>
    <route id="293" edges="101 15 516"/>
    <route id="294" edges="165 51 110"/>
    <route id="295" edges="112 26 617"/>
    <route id="296" edges="154 40 09"/>
    <route id="297" edges="176 62 211"/>
    <route id="298" edges="101 15 516"/>
    <route id="299" edges="154 40 09"/>
    <route id="300" edges="101 15 516"/>
    <route id="301" edges="154 40 09"/>
    <route id="302" edges="123 37 718"/>
    <route id="303" edges="112 26 617"/>
    <route id="304" edges="154 40 09"/>
    <route id="305" edges="90 04 415"/>
    <route id="306" edges="123 37 718"/>
    <route id="307" edges="123 37 718"/>
    <route id="308" edges="123 37 718"/>
    <route id="309" edges="187 73 312"/>
    <route id="310" edges="144 45 56 67 719"/>
    <route id="311" edges="187 73 312"/>
    <route id="312" edges="90 04 415"/>
    <route id="313" edges="187 73 312"/>
    <route id="314" edges="80 01 12 23 313"/>
    <route id="315" edges="133 32 21 10 08"/>
    <route id="316" edges="112 26 617"/>
    <route id="317" edges="176 62 211"/>
    <route id="318" edges="165 51 110"/>
    <route id="319" edges="176 62 211"/>
    <route id="320" edges="154 40 09"/>
    <route id="321" edges="154 40 09"/>
    <route id="322" edges="112 26 617"/>
    <route id="323" edges="101 15 516"/>
    <route id="324" edges="187 73 312"/>
    <route id="325" edges="123 37 718"/>
    <route id="326" edges="154 40 09"/>
    <route id="327" edges="90 04 415"/>
    <route id="328" edges="187 73 312"/>
    <route id="329" edges="80 01 12 23 313"/>
    <route id="330" edges="80 01 12 23 313"/>
    <route id="331" edges="197 76 65 54 414"/>
    <route id="332" edges="154 40 09"/>
    <route id="333" edges="123 37 718"/>
    <route id="334" edges="101 15 516"/>
    <route id="335" edges="123 37 718"/>
    <route id="336" edges="144 45 56 67 719"/>
    <route id="337" edges="90 04 415"/>
    <route id="338" edges="112 26 617"/>
    <route id="339" edges="112 26 617"/>
    <route id="340" edges="187 73 312"/>
    <route id="341" edges="133 32 21 10 08"/>
    <route id="342" edges="144 45 56 67 719"/>
    <route id="343" edges="101 15 516"/>
    <route id="344" edges="80 01 12 23 313"/>
    <route id="345" edges="123 37 718"/>
    <route id="346" edges="154 40 09"/>
    <route id="347" edges="144 45 56 67 719"/>
    <route id="348" edges="112 26 617"/>
    <route id="349" edges="187 73 312"/>
    <route id="350" edges="176 62 211"/>
    <route id="351" edges="165 51 110"/>
    <route id="352" edges="187 73 312"/>
    <route id="353" edges="197 76 65 54 414"/>
    <route id="354" edges="101 15 516"/>
    <route id="355" edges="123 37 718"/>
    <route id="356" edges="154 40 09"/>
    <route id="357" edges="123 37 718"/>
    <route id="358" edges="112 26 617"/>
    <route id="359" edges="154 40 09"/>
    <route id="360" edges="123 37 718"/>
    <route id="361" edges="90 04 415"/>
    <route id="362" edges="90 04 415"/>
    <route id="363" edges="176 62 211"/>
    <route id="364" edges="123 37 718"/>
    <route id="365" edges="80 01 12 23 313"/>
    <route id="366" edges="154 40 09"/>
    <route id="367" edges="90 04 415"/>
    <route id="368" edges="154 40 09"/>
    <route id="369" edges="123 37 718"/>
    <route id="370" edges="165 51 110"/>
    <route id="371" edges="101 15 516"/>
    <route id="372" edges="112 26 617"/>
    <route id="373" edges="90 04 415"/>
    <route id="374" edges="123 37 718"/>
    <route id="375" edges="165 51 110"/>
    <route id="376" edges="112 26 617"/>
    <route id="377" edges="101 15 516"/>
    <route id="378" edges="197 76 65 54 414"/>
    <route id="379" edges="154 40 09"/>
    <route id="380" edges="154 40 09"/>
    <route id="381" edges="176 62 211"/>
    <route id="382" edges="101 15 516"/>
    <route id="383" edges="176 62 211"/>
    <route id="384" edges="101 15 516"/>
    <route id="385" edges="123 37 718"/>
    <route id="386" edges="112 26 617"/>
    <route id="387" edges="154 40 09"/>
    <route id="388" edges="176 62 211"/>
    <route id="389" edges="90 04 415"/>
    <route id="390" edges="101 15 516"/>
    <route id="391" edges="80 01 12 23 313"/>
    <route id="392" edges="112 26 617"/>
    <route id="393" edges="165 51 110"/>
    <route id="394" edges="176 62 211"/>
    <route id="395" edges="165 51 110"/>
    <route id="396" edges="144 45 56 67 719"/>
    <route id="397" edges="80 01 12 23 313"/>
    <route id="398" edges="187 73 312"/>
    <route id="399" edges="123 37 718"/>
    <route id="400" edges="144 45 56 67 719"/>
    <route id="401" edges="187 73 312"/>
    <route id="402" edges="112 26 617"/>
    <route id="403" edges="80 01 12 23 313"/>
    <route id="404" edges="101 15 516"/>
    <route id="405" edges="197 76 65 54 414"/>
    <route id="406" edges="112 26 617"/>
    <route id="407" edges="187 73 312"/>
    <route id="408" edges="123 37 718"/>
    <route id="409" edges="101 15 516"/>
    <route id="410" edges="112 26 617"/>
    <route id="411" edges="187 73 312"/>
    <route id="412" edges="154 40 09"/>
    <route id="413" edges="133 32 21 10 08"/>
    <route id="414" edges="90 04 415"/>
    <route id="415" edges="101 15 516"/>
    <route id="416" edges="133 32 21 10 08"/>
    <route id="417" edges="154 40 09"/>
    <route id="418" edges="187 73 312"/>
    <route id="419" edges="144 45 56 67 719"/>
    <route id="420" edges="144 45 56 67 719"/>
    <route id="421" edges="176 62 211"/>
    <route id="422" edges="176 62 211"/>
    <route id="423" edges="80 01 12 23 313"/>
    <route id="424" edges="133 32 21 10 08"/>
    <route id="425" edges="176 62 211"/>
    <route id="426" edges="123 37 718"/>
    <route id="427" edges="112 26 617"/>
    <route id="428" edges="123 37 718"/>
    <route id="429" edges="112 26 617"/>
    <route id="430" edges="154 40 09"/>
    <route id="431" edges="80 01 12 23 313"/>
    <route id="432" edges="90 04 415"/>
    <route id="433" edges="187 73 312"/>
    <route id="434" edges="90 04 415"/>
    <route id="435" edges="112 26 617"/>
    <route id="436" edges="80 01 12 23 313"/>
    <route id="437" edges="90 04 415"/>
    <route id="438" edges="133 32 21 10 08"/>
    <route id="439" edges="176 62 211"/>
    <route id="440" edges="101 15 516"/>
    <route id="441" edges="112 26 617"/>
    <route id="442" edges="133 32 21 10 08"/>
    <route id="443" edges="90 04 415"/>
    <route id="444" edges="101 15 516"/>
    <route id="445" edges="187 73 312"/>
    <route id="446" edges="144 45 56 67 719"/>
    <route id="447" edges="123 37 718"/>
    <route id="448" edges="176 62 211"/>
    <route id="449" edges="133 32 21 10 08"/>
    <route id="450" edges="197 76 65 54 414"/>
    <route id="451" edges="154 40 09"/>
    <route id="452" edges="90 04 415"/>
    <route id="453" edges="165 51 110"/>
    <route id="454" edges="165 51 110"/>
    <route id="455" edges="197 76 65 54 414"/>
    <route id="456" edges="133 32 21 10 08"/>
    <route id="457" edges="112 26 617"/>
    <route id="458" edges="123 37 718"/>
    <route id="459" edges="154 40 09"/>
    <route id="460" edges="90 04 415"/>
    <route id="461" edges="101 15 516"/>
    <route id="462" edges="101 15 516"/>
    <route id="463" edges="133 32 21 10 08"/>
    <route id="464" edges="101 15 516"/>
    <route id="465" edges="80 01 12 23 313"/>
    <route id="466" edges="154 40 09"/>
    <route id="467" edges="133 32 21 10 08"/>
    <route id="468" edges="90 04 415"/>
    <route id="469" edges="187 73 312"/>
    <route id="470" edges="101 15 516"/>
    <route id="471" edges="144 45 56 67 719"/>
    <route id="472" edges="133 32 21 10 08"/>
    <route id="473" edges="165 51 110"/>
    <route id="474" edges="176 62 211"/>
    <route id="475" edges="112 26 617"/>
    <route id="476" edges="133 32 21 10 08"/>
    <route id="477" edges="176 62 211"/>
    <route id="478" edges="112 26 617"/>
    <route id="479" edges="101 15 516"/>
    <route id="480" edges="176 62 211"/>
    <route id="481" edges="187 73 312"/>
    <route id="482" edges="197 76 65 54 414"/>
    <route id="483" edges="101 15 516"/>
    <route id="484" edges="101 15 516"/>
    <route id="485" edges="144 45 56 67 719"/>
    <route id="486" edges="80 01 12 23 313"/>
    <route id="487" edges="197 76 65 54 414"/>
    <route id="488" edges="133 32 21 10 08"/>
    <route id="489" edges="101 15 516"/>
    <route id="490" edges="176 62 211"/>
    <route id="491" edges="123 37 718"/>
    <route id="492" edges="187 73 312"/>
    <route id="493" edges="187 73 312"/>
    <route id="494" edges="123 37 718"/>
    <route id="495" edges="197 76 65 54 414"/>
    <route id="496" edges="90 04 415"/>
    <route id="497" edges="187 73 312"/>
    <route id="498" edges="101 15 516"/>
    <route id="499" edges="154 40 09"/>
    <route id="500" edges="154 40 09"/>
    <route id="501" edges="197 76 65 54 414"/>
    <route id="502" edges="133 32 21 10 08"/>
    <route id="503" edges="101 15 516"/>
    <route id="504" edges="133 32 21 10 08"/>
    <route id="505" edges="133 32 21 10 08"/>
    <route id="506" edges="90 04 415"/>
    <route id="507" edges="197 76 65 54 414"/>
    <route id="508" edges="101 15 516"/>
    <route id="509" edges="154 40 09"/>
    <route id="510" edges="165 51 110"/>
    <route id="511" edges="176 62 211"/>
    <route id="512" edges="133 32 21 10 08"/>
    <route id="513" edges="90 04 415"/>
    <route id="514" edges="154 40 09"/>
    <route id="515" edges="187 73 312"/>
    <route id="516" edges="90 04 415"/>
    <route id="517" edges="165 51 110"/>
    <route id="518" edges="187 73 312"/>
    <route id="519" edges="144 45 56 67 719"/>
    <route id="520" edges="165 51 110"/>
    <route id="521" edges="80 01 12 23 313"/>
    <route id="522" edges="144 45 56 67 719"/>
    <route id="523" edges="176 62 211"/>
    <route id="524" edges="112 26 617"/>
    <route id="525" edges="90 04 415"/>
    <route id="526" edges="80 01 12 23 313"/>
    <route id="527" edges="101 15 516"/>
    <route id="528" edges="112 26 617"/>
    <route id="529" edges="112 26 617"/>
    <route id="530" edges="154 40 09"/>
    <route id="531" edges="90 04 415"/>
    <route id="532" edges="80 01 12 23 313"/>
    <route id="533" edges="123 37 718"/>
    <route id="534" edges="176 62 211"/>
    <route id="535" edges="80 01 12 23 313"/>
    <route id="536" edges="197 76 65 54 414"/>
    <route id="537" edges="154 40 09"/>
    <route id="538" edges="176 62 211"/>
    <route id="539" edges="176 62 211"/>
    <route id="540" edges="123 37 718"/>
    <route id="541" edges="133 32 21 10 08"/>
    <route id="542" edges="133 32 21 10 08"/>
    <route id="543" edges="197 76 65 54 414"/>
    <route id="544" edges="90 04 415"/>
    <route id="545" edges="80 01 12 23 313"/>
    <route id="546" edges="123 37 718"/>
    <route id="547" edges="176 62 211"/>
    <route id="548" edges="80 01 12 23 313"/>
    <route id="549" edges="165 51 110"/>
    <route id="550" edges="154 40 09"/>
    <route id="551" edges="133 32 21 10 08"/>
    <route id="552" edges="80 01 12 23 313"/>
    <route id="553" edges="197 76 65 54 414"/>
    <route id="554" edges="101 15 516"/>
    <route id="555" edges="165 51 110"/>
    <route id="556" edges="187 73 312"/>
    <route id="557" edges="123 37 718"/>
    <route id="558" edges="133 32 21 10 08"/>
    <route id="559" edges="90 04 415"/>
    <route id="560" edges="187 73 312"/>
    <route id="561" edges="165 51 110"/>
    <route id="562" edges="176 62 211"/>
    <route id="563" edges="187 73 312"/>
    <route id="564" edges="165 51 110"/>
    <route id="565" edges="144 45 56 67 719"/>
    <route id="566" edges="101 15 516"/>
    <route id="567" edges="187 73 312"/>
    <route id="568" edges="197 76 65 54 414"/>
    <route id="569" edges="90 04 415"/>
    <route id="570" edges="90 04 415"/>
    <route id="571" edges="123 37 718"/>
    <route id="572" edges="90 04 415"/>
    <route id="573" edges="112 26 617"/>
    <route id="574" edges="133 32 21 10 08"/>
    <route id="575" edges="80 01 12 23 313"/>
    <route id="576" edges="154 40 09"/>
    <route id="577" edges="90 04 415"/>
    <route id="578" edges="90 04 415"/>
    <route id="579" edges="176 62 211"/>
    <route id="580" edges="112 26 617"/>
    <route id="581" edges="154 40 09"/>
    <route id="582" edges="101 15 516"/>
    <route id="583" edges="90 04 415"/>
    <route id="584" edges="144 45 56 67 719"/>
    <route id="585" edges="123 37 718"/>
    <route id="586" edges="90 04 415"/>
    <route id="587" edges="133 32 21 10 08"/>
    <route id="588" edges="144 45 56 67 719"/>
    <route id="589" edges="165 51 110"/>
    <route id="590" edges="123 37 718"/>
    <route id="591" edges="80 01 12 23 313"/>
    <route id="592" edges="80 01 12 23 313"/>
    <route id="593" edges="80 01 12 23 313"/>
    <route id="594" edges="90 04 415"/>
    <route id="595" edges="176 62 211"/>
    <route id="596" edges="101 15 516"/>
    <route id="597" edges="144 45 56 67 719"/>
    <route id="598" edges="197 76 65 54 414"/>
    <route id="599" edges="154 40 09"/>
    <route id="600" edges="80 01 12 23 313"/>
    <route id="601" edges="165 51 110"/>
    <route id="602" edges="176 62 211"/>
    <route id="603" edges="123 37 718"/>
    <route id="604" edges="187 73 312"/>
    <route id="605" edges="90 04 415"/>
    <route id="606" edges="133 32 21 10 08"/>
    <route id="607" edges="144 45 56 67 719"/>
    <route id="608" edges="144 45 56 67 719"/>
    <route id="609" edges="176 62 211"/>
    <route id="610" edges="165 51 110"/>
    <route id="611" edges="154 40 09"/>
    <route id="612" edges="176 62 211"/>
    <route id="613" edges="123 37 718"/>
    <route id="614" edges="144 45 56 67 719"/>
    <route id="615" edges="176 62 211"/>
    <route id="616" edges="80 01 12 23 313"/>
    <route id="617" edges="90 04 415"/>
    <route id="618" edges="144 45 56 67 719"/>
    <route id="619" edges="154 40 09"/>
    <route id="620" edges="101 15 516"/>
    <route id="621" edges="80 01 12 23 313"/>
    <route id="622" edges="176 62 211"/>
    <route id="623" edges="80 01 12 23 313"/>
    <route id="624" edges="187 73 312"/>
    <route id="625" edges="187 73 312"/>
    <route id="626" edges="154 40 09"/>
    <route id="627" edges="101 15 516"/>
    <route id="628" edges="154 40 09"/>
    <route id="629" edges="197 76 65 54 414"/>
    <route id="630" edges="154 40 09"/>
    <route id="631" edges="123 37 718"/>
    <route id="632" edges="80 01 12 23 313"/>
    <route id="633" edges="197 76 65 54 414"/>
    <route id="634" edges="144 45 56 67 719"/>
    <route id="635" edges="80 01 12 23 313"/>
    <route id="636" edges="90 04 415"/>
    <route id="637" edges="144 45 56 67 719"/>
    <route id="638" edges="197 76 65 54 414"/>
    <route id="639" edges="112 26 617"/>
    <route id="640" edges="187 73 312"/>
    <route id="641" edges="144 45 56 67 719"/>
    <route id="642" edges="197 76 65 54 414"/>
    <route id="643" edges="112 26 617"/>
    <route id="644" edges="176 62 211"/>
    <route id="645" edges="154 40 09"/>
    <route id="646" edges="197 76 65 54 414"/>
    <route id="647" edges="187 73 312"/>
    <route id="648" edges="197 76 65 54 414"/>
    <route id="649" edges="112 26 617"/>
    <route id="650" edges="90 04 415"/>
    <route id="651" edges="176 62 211"/>
    <route id="652" edges="165 51 110"/>
    <route id="653" edges="90 04 415"/>
    <route id="654" edges="133 32 21 10 08"/>
    <route id="655" edges="112 26 617"/>
    <route id="656" edges="176 62 211"/>
    <route id="657" edges="144 45 56 67 719"/>
    <route id="658" edges="80 01 12 23 313"/>
    <route id="659" edges="112 26 617"/>
    <route id="660" edges="112 26 617"/>
    <route id="661" edges="133 32 21 10 08"/>
    <route id="662" edges="144 45 56 67 719"/>
    <route id="663" edges="123 37 718"/>
    <route id="664" edges="123 37 718"/>
    <route id="665" edges="144 45 56 67 719"/>
    <route id="666" edges="165 51 110"/>
    <route id="667" edges="80 01 12 23 313"/>
    <route id="668" edges="90 04 415"/>
    <route id="669" edges="197 76 65 54 414"/>
    <route id="670" edges="187 73 312"/>
    <route id="671" edges="80 01 12 23 313"/>
    <route id="672" edges="187 73 312"/>
    <route id="673" edges="176 62 211"/>
    <route id="674" edges="197 76 65 54 414"/>
    <route id="675" edges="80 01 12 23 313"/>
    <route id="676" edges="80 01 12 23 313"/>
    <route id="677" edges="90 04 415"/>
    <route id="678" edges="154 40 09"/>
    <route id="679" edges="187 73 312"/>
    <route id="680" edges="112 26 617"/>
    <route id="681" edges="112 26 617"/>
    <route id="682" edges="176 62 211"/>
    <route id="683" edges="176 62 211"/>
    <route id="684" edges="187 73 312"/>
    <route id="685" edges="144 45 56 67 719"/>
    <route id="686" edges="90 04 415"/>
    <route id="687" edges="197 76 65 54 414"/>
    <route id="688" edges="80 01 12 23 313"/>
    <route id="689" edges="80 01 12 23 313"/>
    <route id="690" edges="101 15 516"/>
    <route id="691" edges="133 32 21 10 08"/>
    <route id="692" edges="80 01 12 23 313"/>
    <route id="693" edges="154 40 09"/>
    <route id="694" edges="165 51 110"/>
    <route id="695" edges="165 51 110"/>
    <route id="696" edges="123 37 718"/>
    <route id="697" edges="133 32 21 10 08"/>
    <route id="698" edges="187 73 312"/>
    <route id="699" edges="144 45 56 67 719"/>
    <route id="700" edges="133 32 21 10 08"/>
    <route id="701" edges="197 76 65 54 414"/>
    <route id="702" edges="133 32 21 10 08"/>
    <route id="703" edges="176 62 211"/>
    <route id="704" edges="133 32 21 10 08"/>
    <route id="705" edges="90 04 415"/>
    <route id="706" edges="80 01 12 23 313"/>
    <route id="707" edges="165 51 110"/>