<?xml version="1.0" encoding="UTF-8"?>
<edges xmlns:xsi="http://www.w3.org/2001/XMLSchema-instance" xsi:noNamespaceSchemaLocation="http://sumo.dlr.de/xsd/edges_file.xsd">
   <edge id="10" from="1" to="0" priority="78" numLanes="1" speed="19.444" />
   <edge id="01" from="0" to="1" priority="46" numLanes="1" speed="11.111" />

   <edge id="21" from="2" to="1" priority="78" numLanes="1" speed="19.444" />
   <edge id="12" from="1" to="2" priority="46" numLanes="1" speed="11.111" />

   <edge id="23" from="2" to="3" priority="78" numLanes="1" speed="19.444" />
   <edge id="32" from="3" to="2" priority="46" numLanes="1" speed="11.111" />

   <edge id="45" from="4" to="5" priority="78" numLanes="1" speed="19.444" />
   <edge id="54" from="5" to="4" priority="46" numLanes="1" speed="11.111" />

   <edge id="65" from="6" to="5" priority="78" numLanes="1" speed="19.444" />
   <edge id="56" from="5" to="6" priority="46" numLanes="1" speed="11.111" />

   <edge id="67" from="6" to="7" priority="78" numLanes="1" speed="19.444" />
   <edge id="76" from="7" to="6" priority="46" numLanes="1" speed="11.111" />



   <edge id="80" from="8" to="0" priority="78" numLanes="1" speed="19.444" />
   <edge id="08" from="0" to="8" priority="46" numLanes="1" speed="11.111" />

   <edge id="90" from="9" to="0" priority="78" numLanes="1" speed="19.444" />
   <edge id="09" from="0" to="9" priority="46" numLanes="1" speed="11.111" />

   <edge id="110" from="1" to="10" priority="78" numLanes="1" speed="19.444" />
   <edge id="101" from="10" to="1" priority="46" numLanes="1" speed="11.111" />

   <edge id="112" from="11" to="2" priority="78" numLanes="1" speed="19.444" />
   <edge id="211" from="2" to="11" priority="46" numLanes="1" speed="11.111" />

   <edge id="123" from="12" to="3" priority="78" numLanes="1" speed="19.444" />
   <edge id="312" from="3" to="12" priority="46" numLanes="1" speed="11.111" />

   <edge id="313" from="3" to="13" priority="78" numLanes="1" speed="19.444" />
   <edge id="133" from="13" to="3" priority="46" numLanes="1" speed="11.111" />



   <edge id="144" from="14" to="4" priority="78" numLanes="1" speed="19.444" />
   <edge id="414" from="4" to="14" priority="46" numLanes="1" speed="11.111" />

   <edge id="154" from="15" to="4" priority="78" numLanes="1" speed="19.444" />
   <edge id="415" from="4" to="15" priority="46" numLanes="1" speed="11.111" />

   <edge id="165" from="16" to="5" priority="78" numLanes="1" speed="19.444" />
   <edge id="516" from="5" to="16" priority="46" numLanes="1" speed="11.111" />

   <edge id="176" from="17" to="6" priority="78" numLanes="1" speed="19.444" />
   <edge id="617" from="6" to="17" priority="46" numLanes="1" speed="11.111" />

   <edge id="187" from="18" to="7" priority="78" numLanes="1" speed="19.444" />
   <edge id="718" from="7" to="18" priority="46" numLanes="1" speed="11.111" />

   <edge id="197" from="19" to="7" priority="78" numLanes="1" speed="19.444" />
   <edge id="719" from="7" to="19" priority="46" numLanes="1" speed="11.111" />



   <edge id="04" from="0" to="4" priority="78" numLanes="1" speed="19.444" />
   <edge id="40" from="4" to="0" priority="46" numLanes="1" speed="11.111" />

   <edge id="15" from="1" to="5" priority="78" numLanes="1" speed="19.444" />
   <edge id="51" from="5" to="1" priority="46" numLanes="1" speed="11.111" />

   <edge id="26" from="2" to="6" priority="78" numLanes="1" speed="19.444" />
   <edge id="62" from="6" to="2" priority="46" numLanes="1" speed="11.111" />

   <edge id="73" from="7" to="3" priority="78" numLanes="1" speed="19.444" />
   <edge id="37" from="3" to="7" priority="46" numLanes="1" speed="11.111" />
</edges>
