<?xml version="1.0" encoding="UTF-8"?>

<!-- generated on Sun Dec  1 21:32:53 2019 by Eclipse SUMO netconvert Version 1.2.0
<configuration xmlns:xsi="http://www.w3.org/2001/XMLSchema-instance" xsi:noNamespaceSchemaLocation="http://sumo.dlr.de/xsd/netconvertConfiguration.xsd">

    <input>
        <node-files value="four.nod.xml"/>
        <edge-files value="four.edg.xml"/>
        <connection-files value="four.con.xml"/>
    </input>

    <output>
        <output-file value="four.net.xml"/>
    </output>

</configuration>
-->

<net version="1.1" junctionCornerDetail="5" limitTurnSpeed="5.50" xmlns:xsi="http://www.w3.org/2001/XMLSchema-instance" xsi:noNamespaceSchemaLocation="http://sumo.dlr.de/xsd/net_file.xsd">

    <location netOffset="500.00,1000.00" convBoundary="0.00,0.00,1500.00,1500.00" origBoundary="-500.00,-1000.00,1000.00,500.00" projParameter="!"/>

    <edge id=":0_0" function="internal">
        <lane id=":0_0_0" index="0" speed="19.44" length="14.40" shape="498.40,1007.20 498.40,992.80"/>
    </edge>
    <edge id=":0_1" function="internal">
        <lane id=":0_1_0" index="0" speed="11.11" length="14.40" shape="507.20,1001.60 492.80,1001.60"/>
    </edge>
    <edge id=":0_2" function="internal">
        <lane id=":0_2_0" index="0" speed="11.11" length="14.40" shape="501.60,992.80 501.60,1007.20"/>
    </edge>
    <edge id=":0_3" function="internal">
        <lane id=":0_3_0" index="0" speed="19.44" length="14.40" shape="492.80,998.40 507.20,998.40"/>
    </edge>
    <edge id=":1_0" function="internal">
        <lane id=":1_0_0" index="0" speed="19.44" length="14.40" shape="998.40,1007.20 998.40,992.80"/>
    </edge>
    <edge id=":1_1" function="internal">
        <lane id=":1_1_0" index="0" speed="15.28" length="14.40" shape="1007.20,1001.60 992.80,1001.60"/>
    </edge>
    <edge id=":1_2" function="internal">
        <lane id=":1_2_0" index="0" speed="11.11" length="14.40" shape="1001.60,992.80 1001.60,1007.20"/>
    </edge>
    <edge id=":1_3" function="internal">
        <lane id=":1_3_0" index="0" speed="15.28" length="14.40" shape="992.80,998.40 1007.20,998.40"/>
    </edge>
    <edge id=":10_0" function="internal">
        <lane id=":10_0_0" index="0" speed="3.65" length="4.67" shape="998.40,0.00 999.20,-1.20 1000.00,-1.60 1000.80,-1.20 1001.60,0.00"/>
    </edge>
    <edge id=":11_0" function="internal">
        <lane id=":11_0_0" index="0" speed="3.65" length="4.67" shape="1500.00,498.40 1501.20,499.20 1501.60,500.00 1501.20,500.80 1500.00,501.60"/>
    </edge>
    <edge id=":2_0" function="internal">
        <lane id=":2_0_0" index="0" speed="15.28" length="14.40" shape="498.40,507.20 498.40,492.80"/>
    </edge>
    <edge id=":2_1" function="internal">
        <lane id=":2_1_0" index="0" speed="11.11" length="14.40" shape="507.20,501.60 492.80,501.60"/>
    </edge>
    <edge id=":2_2" function="internal">
        <lane id=":2_2_0" index="0" speed="15.28" length="14.40" shape="501.60,492.80 501.60,507.20"/>
    </edge>
    <edge id=":2_3" function="internal">
        <lane id=":2_3_0" index="0" speed="19.44" length="14.40" shape="492.80,498.40 507.20,498.40"/>
    </edge>
    <edge id=":3_0" function="internal">
        <lane id=":3_0_0" index="0" speed="15.28" length="14.40" shape="998.40,507.20 998.40,492.80"/>
    </edge>
    <edge id=":3_1" function="internal">
        <lane id=":3_1_0" index="0" speed="11.11" length="14.40" shape="1007.20,501.60 992.80,501.60"/>
    </edge>
    <edge id=":3_2" function="internal">
        <lane id=":3_2_0" index="0" speed="15.28" length="14.40" shape="1001.60,492.80 1001.60,507.20"/>
    </edge>
    <edge id=":3_3" function="internal">
        <lane id=":3_3_0" index="0" speed="19.44" length="14.40" shape="992.80,498.40 1007.20,498.40"/>
    </edge>
    <edge id=":4_0" function="internal">
        <lane id=":4_0_0" index="0" speed="3.65" length="4.67" shape="0.00,1001.60 -1.20,1000.80 -1.60,1000.00 -1.20,999.20 0.00,998.40"/>
    </edge>
    <edge id=":5_0" function="internal">
        <lane id=":5_0_0" index="0" speed="3.65" length="4.67" shape="501.60,1500.00 500.80,1501.20 500.00,1501.60 499.20,1501.20 498.40,1500.00"/>
    </edge>
    <edge id=":6_0" function="internal">
        <lane id=":6_0_0" index="0" speed="3.65" length="4.67" shape="1001.60,1500.00 1000.80,1501.20 1000.00,1501.60 999.20,1501.20 998.40,1500.00"/>
    </edge>
    <edge id=":7_0" function="internal">
        <lane id=":7_0_0" index="0" speed="3.65" length="4.67" shape="1500.00,998.40 1501.20,999.20 1501.60,1000.00 1501.20,1000.80 1500.00,1001.60"/>
    </edge>
    <edge id=":8_0" function="internal">
        <lane id=":8_0_0" index="0" speed="3.65" length="4.67" shape="0.00,501.60 -1.20,500.80 -1.60,500.00 -1.20,499.20 0.00,498.40"/>
    </edge>
    <edge id=":9_0" function="internal">
        <lane id=":9_0_0" index="0" speed="3.65" length="4.67" shape="498.40,0.00 499.20,-1.20 500.00,-1.60 500.80,-1.20 501.60,0.00"/>
    </edge>

    <edge id="01" from="0" to="1" priority="78">
        <lane id="01_0" index="0" speed="19.44" length="485.60" shape="507.20,998.40 992.80,998.40"/>
    </edge>
    <edge id="02" from="0" to="2" priority="78">
        <lane id="02_0" index="0" speed="19.44" length="485.60" shape="498.40,992.80 498.40,507.20"/>
    </edge>
    <edge id="04" from="0" to="4" priority="46">
        <lane id="04_0" index="0" speed="11.11" length="492.80" shape="492.80,1001.60 0.00,1001.60"/>
    </edge>
    <edge id="05" from="0" to="5" priority="46">
        <lane id="05_0" index="0" speed="11.11" length="492.80" shape="501.60,1007.20 501.60,1500.00"/>
    </edge>
    <edge id="10" from="1" to="0" priority="46">
        <lane id="10_0" index="0" speed="11.11" length="485.60" shape="992.80,1001.60 507.20,1001.60"/>
    </edge>
    <edge id="103" from="10" to="3" priority="78">
        <lane id="103_0" index="0" speed="19.44" length="492.80" shape="1001.60,0.00 1001.60,492.80"/>
    </edge>
    <edge id="113" from="11" to="3" priority="46">
        <lane id="113_0" index="0" speed="11.11" length="492.80" shape="1500.00,501.60 1007.20,501.60"/>
    </edge>
    <edge id="13" from="1" to="3" priority="78">
        <lane id="13_0" index="0" speed="19.44" length="485.60" shape="998.40,992.80 998.40,507.20"/>
    </edge>
    <edge id="16" from="1" to="6" priority="46">
        <lane id="16_0" index="0" speed="11.11" length="492.80" shape="1001.60,1007.20 1001.60,1500.00"/>
    </edge>
    <edge id="17" from="1" to="7" priority="46">
        <lane id="17_0" index="0" speed="11.11" length="492.80" shape="1007.20,998.40 1500.00,998.40"/>
    </edge>
    <edge id="20" from="2" to="0" priority="46">
        <lane id="20_0" index="0" speed="11.11" length="485.60" shape="501.60,507.20 501.60,992.80"/>
    </edge>
    <edge id="23" from="2" to="3" priority="78">
        <lane id="23_0" index="0" speed="19.44" length="485.60" shape="507.20,498.40 992.80,498.40"/>
    </edge>
    <edge id="28" from="2" to="8" priority="46">
        <lane id="28_0" index="0" speed="11.11" length="492.80" shape="492.80,501.60 0.00,501.60"/>
    </edge>
    <edge id="29" from="2" to="9" priority="46">
        <lane id="29_0" index="0" speed="11.11" length="492.80" shape="498.40,492.80 498.40,0.00"/>
    </edge>
    <edge id="31" from="3" to="1" priority="46">
        <lane id="31_0" index="0" speed="11.11" length="485.60" shape="1001.60,507.20 1001.60,992.80"/>
    </edge>
    <edge id="310" from="3" to="10" priority="46">
        <lane id="310_0" index="0" speed="11.11" length="492.80" shape="998.40,492.80 998.40,0.00"/>
    </edge>
    <edge id="311" from="3" to="11" priority="78">
        <lane id="311_0" index="0" speed="19.44" length="492.80" shape="1007.20,498.40 1500.00,498.40"/>
    </edge>
    <edge id="32" from="3" to="2" priority="46">
        <lane id="32_0" index="0" speed="11.11" length="485.60" shape="992.80,501.60 507.20,501.60"/>
    </edge>
    <edge id="40" from="4" to="0" priority="78">
        <lane id="40_0" index="0" speed="19.44" length="492.80" shape="0.00,998.40 492.80,998.40"/>
    </edge>
    <edge id="50" from="5" to="0" priority="78">
        <lane id="50_0" index="0" speed="19.44" length="492.80" shape="498.40,1500.00 498.40,1007.20"/>
    </edge>
    <edge id="61" from="6" to="1" priority="78">
        <lane id="61_0" index="0" speed="19.44" length="492.80" shape="998.40,1500.00 998.40,1007.20"/>
    </edge>
    <edge id="71" from="7" to="1" priority="78">
        <lane id="71_0" index="0" speed="19.44" length="492.80" shape="1500.00,1001.60 1007.20,1001.60"/>
    </edge>
    <edge id="82" from="8" to="2" priority="78">
        <lane id="82_0" index="0" speed="19.44" length="492.80" shape="0.00,498.40 492.80,498.40"/>
    </edge>
    <edge id="92" from="9" to="2" priority="78">
        <lane id="92_0" index="0" speed="19.44" length="492.80" shape="501.60,0.00 501.60,492.80"/>
    </edge>

    <tlLogic id="0" type="static" programID="0" offset="0">
        <phase duration="40" state="GrGr"/>
        <phase duration="5"  state="yryr"/>
        <phase duration="40" state="rGrG"/>
        <phase duration="5"  state="ryry"/>
    </tlLogic>
    <tlLogic id="1" type="static" programID="0" offset="0">
        <phase duration="40" state="GrGr"/>
        <phase duration="5"  state="yryr"/>
        <phase duration="40" state="rGrG"/>
        <phase duration="5"  state="ryry"/>
    </tlLogic>
    <tlLogic id="2" type="static" programID="0" offset="0">
        <phase duration="40" state="GrGr"/>
        <phase duration="5"  state="yryr"/>
        <phase duration="40" state="rGrG"/>
        <phase duration="5"  state="ryry"/>
    </tlLogic>
    <tlLogic id="3" type="static" programID="0" offset="0">
        <phase duration="40" state="GrGr"/>
        <phase duration="5"  state="yryr"/>
        <phase duration="40" state="rGrG"/>
        <phase duration="5"  state="ryry"/>
    </tlLogic>

    <junction id="0" type="traffic_light" x="500.00" y="1000.00" incLanes="50_0 10_0 20_0 40_0" intLanes=":0_0_0 :0_1_0 :0_2_0 :0_3_0" shape="496.80,1007.20 503.20,1007.20 503.64,1004.98 504.20,1004.20 504.98,1003.64 505.98,1003.31 507.20,1003.20 507.20,996.80 504.98,996.36 504.20,995.80 503.64,995.02 503.31,994.02 503.20,992.80 496.80,992.80 496.36,995.02 495.80,995.80 495.02,996.36 494.02,996.69 492.80,996.80 492.80,1003.20 495.02,1003.64 495.80,1004.20 496.36,1004.98 496.69,1005.98">
        <request index="0" response="1000" foes="1010" cont="0"/>
        <request index="1" response="0001" foes="0101" cont="0"/>
        <request index="2" response="1010" foes="1010" cont="0"/>
        <request index="3" response="0000" foes="0101" cont="0"/>
    </junction>
    <junction id="1" type="traffic_light" x="1000.00" y="1000.00" incLanes="61_0 71_0 31_0 01_0" intLanes=":1_0_0 :1_1_0 :1_2_0 :1_3_0" shape="996.80,1007.20 1003.20,1007.20 1003.64,1004.98 1004.20,1004.20 1004.98,1003.64 1005.98,1003.31 1007.20,1003.20 1007.20,996.80 1004.98,996.36 1004.20,995.80 1003.64,995.02 1003.31,994.02 1003.20,992.80 996.80,992.80 996.36,995.02 995.80,995.80 995.02,996.36 994.02,996.69 992.80,996.80 992.80,1003.20 995.02,1003.64 995.80,1004.20 996.36,1004.98 996.69,1005.98">
        <request index="0" response="1010" foes="1010" cont="0"/>
        <request index="1" response="0000" foes="0101" cont="0"/>
        <request index="2" response="1010" foes="1010" cont="0"/>
        <request index="3" response="0000" foes="0101" cont="0"/>
    </junction>
    <junction id="10" type="priority" x="1000.00" y="0.00" incLanes="310_0" intLanes=":10_0_0" shape="1000.00,0.00 996.80,0.00 1000.00,0.00">
        <request index="0" response="0" foes="0" cont="0"/>
    </junction>
    <junction id="11" type="priority" x="1500.00" y="500.00" incLanes="311_0" intLanes=":11_0_0" shape="1500.00,500.00 1500.00,496.80 1500.00,500.00">
        <request index="0" response="0" foes="0" cont="0"/>
    </junction>
    <junction id="2" type="traffic_light" x="500.00" y="500.00" incLanes="02_0 32_0 92_0 82_0" intLanes=":2_0_0 :2_1_0 :2_2_0 :2_3_0" shape="496.80,507.20 503.20,507.20 503.64,504.98 504.20,504.20 504.98,503.64 505.98,503.31 507.20,503.20 507.20,496.80 504.98,496.36 504.20,495.80 503.64,495.02 503.31,494.02 503.20,492.80 496.80,492.80 496.36,495.02 495.80,495.80 495.02,496.36 494.02,496.69 492.80,496.80 492.80,503.20 495.02,503.64 495.80,504.20 496.36,504.98 496.69,505.98">
        <request index="0" response="0000" foes="1010" cont="0"/>
        <request index="1" response="0101" foes="0101" cont="0"/>
        <request index="2" response="0000" foes="1010" cont="0"/>
        <request index="3" response="0101" foes="0101" cont="0"/>
    </junction>
    <junction id="3" type="traffic_light" x="1000.00" y="500.00" incLanes="13_0 113_0 103_0 23_0" intLanes=":3_0_0 :3_1_0 :3_2_0 :3_3_0" shape="996.80,507.20 1003.20,507.20 1003.64,504.98 1004.20,504.20 1004.98,503.64 1005.98,503.31 1007.20,503.20 1007.20,496.80 1004.98,496.36 1004.20,495.80 1003.64,495.02 1003.31,494.02 1003.20,492.80 996.80,492.80 996.36,495.02 995.80,495.80 995.02,496.36 994.02,496.69 992.80,496.80 992.80,503.20 995.02,503.64 995.80,504.20 996.36,504.98 996.69,505.98">
        <request index="0" response="0000" foes="1010" cont="0"/>
        <request index="1" response="0101" foes="0101" cont="0"/>
        <request index="2" response="0000" foes="1010" cont="0"/>
        <request index="3" response="0101" foes="0101" cont="0"/>
    </junction>
    <junction id="4" type="priority" x="0.00" y="1000.00" incLanes="04_0" intLanes=":4_0_0" shape="0.00,1000.00 0.00,1003.20 0.00,1000.00">
        <request index="0" response="0" foes="0" cont="0"/>
    </junction>
    <junction id="5" type="priority" x="500.00" y="1500.00" incLanes="05_0" intLanes=":5_0_0" shape="500.00,1500.00 503.20,1500.00 500.00,1500.00">
        <request index="0" response="0" foes="0" cont="0"/>
    </junction>
    <junction id="6" type="priority" x="1000.00" y="1500.00" incLanes="16_0" intLanes=":6_0_0" shape="1000.00,1500.00 1003.20,1500.00 1000.00,1500.00">
        <request index="0" response="0" foes="0" cont="0"/>
    </junction>
    <junction id="7" type="priority" x="1500.00" y="1000.00" incLanes="17_0" intLanes=":7_0_0" shape="1500.00,1000.00 1500.00,996.80 1500.00,1000.00">
        <request index="0" response="0" foes="0" cont="0"/>
    </junction>
    <junction id="8" type="priority" x="0.00" y="500.00" incLanes="28_0" intLanes=":8_0_0" shape="0.00,500.00 0.00,503.20 0.00,500.00">
        <request index="0" response="0" foes="0" cont="0"/>
    </junction>
    <junction id="9" type="priority" x="500.00" y="0.00" incLanes="29_0" intLanes=":9_0_0" shape="500.00,0.00 496.80,0.00 500.00,0.00">
        <request index="0" response="0" foes="0" cont="0"/>
    </junction>

    <connection from="01" to="17" fromLane="0" toLane="0" via=":1_3_0" tl="1" linkIndex="3" dir="s" state="O"/>
    <connection from="02" to="29" fromLane="0" toLane="0" via=":2_0_0" tl="2" linkIndex="0" dir="s" state="O"/>
    <connection from="04" to="40" fromLane="0" toLane="0" via=":4_0_0" dir="t" state="M"/>
    <connection from="05" to="50" fromLane="0" toLane="0" via=":5_0_0" dir="t" state="M"/>
    <connection from="10" to="04" fromLane="0" toLane="0" via=":0_1_0" tl="0" linkIndex="1" dir="s" state="o"/>
    <connection from="103" to="31" fromLane="0" toLane="0" via=":3_2_0" tl="3" linkIndex="2" dir="s" state="O"/>
    <connection from="113" to="32" fromLane="0" toLane="0" via=":3_1_0" tl="3" linkIndex="1" dir="s" state="o"/>
    <connection from="13" to="310" fromLane="0" toLane="0" via=":3_0_0" tl="3" linkIndex="0" dir="s" state="O"/>
    <connection from="16" to="61" fromLane="0" toLane="0" via=":6_0_0" dir="t" state="M"/>
    <connection from="17" to="71" fromLane="0" toLane="0" via=":7_0_0" dir="t" state="M"/>
    <connection from="20" to="05" fromLane="0" toLane="0" via=":0_2_0" tl="0" linkIndex="2" dir="s" state="o"/>
    <connection from="23" to="311" fromLane="0" toLane="0" via=":3_3_0" tl="3" linkIndex="3" dir="s" state="o"/>
    <connection from="28" to="82" fromLane="0" toLane="0" via=":8_0_0" dir="t" state="M"/>
    <connection from="29" to="92" fromLane="0" toLane="0" via=":9_0_0" dir="t" state="M"/>
    <connection from="31" to="16" fromLane="0" toLane="0" via=":1_2_0" tl="1" linkIndex="2" dir="s" state="o"/>
    <connection from="310" to="103" fromLane="0" toLane="0" via=":10_0_0" dir="t" state="M"/>
    <connection from="311" to="113" fromLane="0" toLane="0" via=":11_0_0" dir="t" state="M"/>
    <connection from="32" to="28" fromLane="0" toLane="0" via=":2_1_0" tl="2" linkIndex="1" dir="s" state="o"/>
    <connection from="40" to="01" fromLane="0" toLane="0" via=":0_3_0" tl="0" linkIndex="3" dir="s" state="O"/>
    <connection from="50" to="02" fromLane="0" toLane="0" via=":0_0_0" tl="0" linkIndex="0" dir="s" state="o"/>
    <connection from="61" to="13" fromLane="0" toLane="0" via=":1_0_0" tl="1" linkIndex="0" dir="s" state="o"/>
    <connection from="71" to="10" fromLane="0" toLane="0" via=":1_1_0" tl="1" linkIndex="1" dir="s" state="O"/>
    <connection from="82" to="23" fromLane="0" toLane="0" via=":2_3_0" tl="2" linkIndex="3" dir="s" state="o"/>
    <connection from="92" to="20" fromLane="0" toLane="0" via=":2_2_0" tl="2" linkIndex="2" dir="s" state="O"/>

    <connection from=":0_0" to="02" fromLane="0" toLane="0" dir="s" state="M"/>
    <connection from=":0_1" to="04" fromLane="0" toLane="0" dir="s" state="M"/>
    <connection from=":0_2" to="05" fromLane="0" toLane="0" dir="s" state="M"/>
    <connection from=":0_3" to="01" fromLane="0" toLane="0" dir="s" state="M"/>
    <connection from=":1_0" to="13" fromLane="0" toLane="0" dir="s" state="M"/>
    <connection from=":1_1" to="10" fromLane="0" toLane="0" dir="s" state="M"/>
    <connection from=":1_2" to="16" fromLane="0" toLane="0" dir="s" state="M"/>
    <connection from=":1_3" to="17" fromLane="0" toLane="0" dir="s" state="M"/>
    <connection from=":10_0" to="103" fromLane="0" toLane="0" dir="t" state="M"/>
    <connection from=":11_0" to="113" fromLane="0" toLane="0" dir="t" state="M"/>
    <connection from=":2_0" to="29" fromLane="0" toLane="0" dir="s" state="M"/>
    <connection from=":2_1" to="28" fromLane="0" toLane="0" dir="s" state="M"/>
    <connection from=":2_2" to="20" fromLane="0" toLane="0" dir="s" state="M"/>
    <connection from=":2_3" to="23" fromLane="0" toLane="0" dir="s" state="M"/>
    <connection from=":3_0" to="310" fromLane="0" toLane="0" dir="s" state="M"/>
    <connection from=":3_1" to="32" fromLane="0" toLane="0" dir="s" state="M"/>
    <connection from=":3_2" to="31" fromLane="0" toLane="0" dir="s" state="M"/>
    <connection from=":3_3" to="311" fromLane="0" toLane="0" dir="s" state="M"/>
    <connection from=":4_0" to="40" fromLane="0" toLane="0" dir="t" state="M"/>
    <connection from=":5_0" to="50" fromLane="0" toLane="0" dir="t" state="M"/>
    <connection from=":6_0" to="61" fromLane="0" toLane="0" dir="t" state="M"/>
    <connection from=":7_0" to="71" fromLane="0" toLane="0" dir="t" state="M"/>
    <connection from=":8_0" to="82" fromLane="0" toLane="0" dir="t" state="M"/>
    <connection from=":9_0" to="92" fromLane="0" toLane="0" dir="t" state="M"/>

</net>
