<?xml version="1.0" encoding="UTF-8"?>

<!-- generated on Wed Nov  6 12:37:40 2019 by Eclipse SUMO netconvert Version 1.2.0
<configuration xmlns:xsi="http://www.w3.org/2001/XMLSchema-instance" xsi:noNamespaceSchemaLocation="http://sumo.dlr.de/xsd/netconvertConfiguration.xsd">

    <input>
        <node-files value="six.nod.xml"/>
        <edge-files value="six.edg.xml"/>
        <connection-files value="six.con.xml"/>
    </input>

    <output>
        <output-file value="six.net.xml"/>
    </output>

</configuration>
-->

<net version="1.1" junctionCornerDetail="5" limitTurnSpeed="5.50" xmlns:xsi="http://www.w3.org/2001/XMLSchema-instance" xsi:noNamespaceSchemaLocation="http://sumo.dlr.de/xsd/net_file.xsd">

    <location netOffset="500.00,1000.00" convBoundary="0.00,0.00,2000.00,1500.00" origBoundary="-500.00,-1000.00,1500.00,500.00" projParameter="!"/>

    <edge id=":0_0" function="internal">
        <lane id=":0_0_0" index="0" speed="19.44" length="14.40" shape="498.40,1007.20 498.40,992.80"/>
    </edge>
    <edge id=":0_1" function="internal">
        <lane id=":0_1_0" index="0" speed="15.28" length="14.40" shape="507.20,1001.60 492.80,1001.60"/>
    </edge>
    <edge id=":0_2" function="internal">
        <lane id=":0_2_0" index="0" speed="11.11" length="14.40" shape="501.60,992.80 501.60,1007.20"/>
    </edge>
    <edge id=":0_3" function="internal">
        <lane id=":0_3_0" index="0" speed="15.28" length="14.40" shape="492.80,998.40 507.20,998.40"/>
    </edge>
    <edge id=":1_0" function="internal">
        <lane id=":1_0_0" index="0" speed="15.28" length="14.40" shape="998.40,1007.20 998.40,992.80"/>
    </edge>
    <edge id=":1_1" function="internal">
        <lane id=":1_1_0" index="0" speed="19.44" length="14.40" shape="1007.20,1001.60 992.80,1001.60"/>
    </edge>
    <edge id=":1_2" function="internal">
        <lane id=":1_2_0" index="0" speed="15.28" length="14.40" shape="1001.60,992.80 1001.60,1007.20"/>
    </edge>
    <edge id=":1_3" function="internal">
        <lane id=":1_3_0" index="0" speed="11.11" length="14.40" shape="992.80,998.40 1007.20,998.40"/>
    </edge>
    <edge id=":10_0" function="internal">
        <lane id=":10_0_0" index="0" speed="3.65" length="4.67" shape="2000.00,998.40 2001.20,999.20 2001.60,1000.00 2001.20,1000.80 2000.00,1001.60"/>
    </edge>
    <edge id=":11_0" function="internal">
        <lane id=":11_0_0" index="0" speed="3.65" length="4.67" shape="0.00,501.60 -1.20,500.80 -1.60,500.00 -1.20,499.20 0.00,498.40"/>
    </edge>
    <edge id=":12_0" function="internal">
        <lane id=":12_0_0" index="0" speed="3.65" length="4.67" shape="498.40,0.00 499.20,-1.20 500.00,-1.60 500.80,-1.20 501.60,0.00"/>
    </edge>
    <edge id=":13_0" function="internal">
        <lane id=":13_0_0" index="0" speed="3.65" length="4.67" shape="998.40,0.00 999.20,-1.20 1000.00,-1.60 1000.80,-1.20 1001.60,0.00"/>
    </edge>
    <edge id=":14_0" function="internal">
        <lane id=":14_0_0" index="0" speed="3.65" length="4.67" shape="1498.40,0.00 1499.20,-1.20 1500.00,-1.60 1500.80,-1.20 1501.60,0.00"/>
    </edge>
    <edge id=":15_0" function="internal">
        <lane id=":15_0_0" index="0" speed="3.65" length="4.67" shape="2000.00,498.40 2001.20,499.20 2001.60,500.00 2001.20,500.80 2000.00,501.60"/>
    </edge>
    <edge id=":2_0" function="internal">
        <lane id=":2_0_0" index="0" speed="19.44" length="14.40" shape="1498.40,1007.20 1498.40,992.80"/>
    </edge>
    <edge id=":2_1" function="internal">
        <lane id=":2_1_0" index="0" speed="19.44" length="14.40" shape="1507.20,1001.60 1492.80,1001.60"/>
    </edge>
    <edge id=":2_2" function="internal">
        <lane id=":2_2_0" index="0" speed="11.11" length="14.40" shape="1501.60,992.80 1501.60,1007.20"/>
    </edge>
    <edge id=":2_3" function="internal">
        <lane id=":2_3_0" index="0" speed="11.11" length="14.40" shape="1492.80,998.40 1507.20,998.40"/>
    </edge>
    <edge id=":3_0" function="internal">
        <lane id=":3_0_0" index="0" speed="15.28" length="14.40" shape="498.40,507.20 498.40,492.80"/>
    </edge>
    <edge id=":3_1" function="internal">
        <lane id=":3_1_0" index="0" speed="11.11" length="14.40" shape="507.20,501.60 492.80,501.60"/>
    </edge>
    <edge id=":3_2" function="internal">
        <lane id=":3_2_0" index="0" speed="15.28" length="14.40" shape="501.60,492.80 501.60,507.20"/>
    </edge>
    <edge id=":3_3" function="internal">
        <lane id=":3_3_0" index="0" speed="19.44" length="14.40" shape="492.80,498.40 507.20,498.40"/>
    </edge>
    <edge id=":4_0" function="internal">
        <lane id=":4_0_0" index="0" speed="11.11" length="14.40" shape="998.40,507.20 998.40,492.80"/>
    </edge>
    <edge id=":4_1" function="internal">
        <lane id=":4_1_0" index="0" speed="11.11" length="14.40" shape="1007.20,501.60 992.80,501.60"/>
    </edge>
    <edge id=":4_2" function="internal">
        <lane id=":4_2_0" index="0" speed="19.44" length="14.40" shape="1001.60,492.80 1001.60,507.20"/>
    </edge>
    <edge id=":4_3" function="internal">
        <lane id=":4_3_0" index="0" speed="19.44" length="14.40" shape="992.80,498.40 1007.20,498.40"/>
    </edge>
    <edge id=":5_0" function="internal">
        <lane id=":5_0_0" index="0" speed="19.44" length="14.40" shape="1498.40,507.20 1498.40,492.80"/>
    </edge>
    <edge id=":5_1" function="internal">
        <lane id=":5_1_0" index="0" speed="11.11" length="14.40" shape="1507.20,501.60 1492.80,501.60"/>
    </edge>
    <edge id=":5_2" function="internal">
        <lane id=":5_2_0" index="0" speed="11.11" length="14.40" shape="1501.60,492.80 1501.60,507.20"/>
    </edge>
    <edge id=":5_3" function="internal">
        <lane id=":5_3_0" index="0" speed="19.44" length="14.40" shape="1492.80,498.40 1507.20,498.40"/>
    </edge>
    <edge id=":6_0" function="internal">
        <lane id=":6_0_0" index="0" speed="3.65" length="4.67" shape="0.00,1001.60 -1.20,1000.80 -1.60,1000.00 -1.20,999.20 0.00,998.40"/>
    </edge>
    <edge id=":7_0" function="internal">
        <lane id=":7_0_0" index="0" speed="3.65" length="4.67" shape="501.60,1500.00 500.80,1501.20 500.00,1501.60 499.20,1501.20 498.40,1500.00"/>
    </edge>
    <edge id=":8_0" function="internal">
        <lane id=":8_0_0" index="0" speed="3.65" length="4.67" shape="1001.60,1500.00 1000.80,1501.20 1000.00,1501.60 999.20,1501.20 998.40,1500.00"/>
    </edge>
    <edge id=":9_0" function="internal">
        <lane id=":9_0_0" index="0" speed="3.65" length="4.67" shape="1501.60,1500.00 1500.80,1501.20 1500.00,1501.60 1499.20,1501.20 1498.40,1500.00"/>
    </edge>

    <edge id="01" from="0" to="1" priority="46">
        <lane id="01_0" index="0" speed="11.11" length="485.60" shape="507.20,998.40 992.80,998.40"/>
    </edge>
    <edge id="03" from="0" to="3" priority="78">
        <lane id="03_0" index="0" speed="19.44" length="485.60" shape="498.40,992.80 498.40,507.20"/>
    </edge>
    <edge id="06" from="0" to="6" priority="46">
        <lane id="06_0" index="0" speed="11.11" length="492.80" shape="492.80,1001.60 0.00,1001.60"/>
    </edge>
    <edge id="07" from="0" to="7" priority="46">
        <lane id="07_0" index="0" speed="11.11" length="492.80" shape="501.60,1007.20 501.60,1500.00"/>
    </edge>
    <edge id="10" from="1" to="0" priority="78">
        <lane id="10_0" index="0" speed="19.44" length="485.60" shape="992.80,1001.60 507.20,1001.60"/>
    </edge>
    <edge id="102" from="10" to="2" priority="78">
        <lane id="102_0" index="0" speed="19.44" length="492.80" shape="2000.00,1001.60 1507.20,1001.60"/>
    </edge>
    <edge id="113" from="11" to="3" priority="78">
        <lane id="113_0" index="0" speed="19.44" length="492.80" shape="0.00,498.40 492.80,498.40"/>
    </edge>
    <edge id="12" from="1" to="2" priority="46">
        <lane id="12_0" index="0" speed="11.11" length="485.60" shape="1007.20,998.40 1492.80,998.40"/>
    </edge>
    <edge id="123" from="12" to="3" priority="78">
        <lane id="123_0" index="0" speed="19.44" length="492.80" shape="501.60,0.00 501.60,492.80"/>
    </edge>
    <edge id="134" from="13" to="4" priority="78">
        <lane id="134_0" index="0" speed="19.44" length="492.80" shape="1001.60,0.00 1001.60,492.80"/>
    </edge>
    <edge id="14" from="1" to="4" priority="46">
        <lane id="14_0" index="0" speed="11.11" length="485.60" shape="998.40,992.80 998.40,507.20"/>
    </edge>
    <edge id="145" from="14" to="5" priority="46">
        <lane id="145_0" index="0" speed="11.11" length="492.80" shape="1501.60,0.00 1501.60,492.80"/>
    </edge>
    <edge id="15i" from="15" to="5" priority="46">
        <lane id="15i_0" index="0" speed="11.11" length="492.80" shape="2000.00,501.60 1507.20,501.60"/>
    </edge>
    <edge id="18" from="1" to="8" priority="46">
        <lane id="18_0" index="0" speed="11.11" length="492.80" shape="1001.60,1007.20 1001.60,1500.00"/>
    </edge>
    <edge id="21" from="2" to="1" priority="78">
        <lane id="21_0" index="0" speed="19.44" length="485.60" shape="1492.80,1001.60 1007.20,1001.60"/>
    </edge>
    <edge id="210" from="2" to="10" priority="46">
        <lane id="210_0" index="0" speed="11.11" length="492.80" shape="1507.20,998.40 2000.00,998.40"/>
    </edge>
    <edge id="25" from="2" to="5" priority="78">
        <lane id="25_0" index="0" speed="19.44" length="485.60" shape="1498.40,992.80 1498.40,507.20"/>
    </edge>
    <edge id="29" from="2" to="9" priority="46">
        <lane id="29_0" index="0" speed="11.11" length="492.80" shape="1501.60,1007.20 1501.60,1500.00"/>
    </edge>
    <edge id="30" from="3" to="0" priority="46">
        <lane id="30_0" index="0" speed="11.11" length="485.60" shape="501.60,507.20 501.60,992.80"/>
    </edge>
    <edge id="311" from="3" to="11" priority="46">
        <lane id="311_0" index="0" speed="11.11" length="492.80" shape="492.80,501.60 0.00,501.60"/>
    </edge>
    <edge id="312" from="3" to="12" priority="46">
        <lane id="312_0" index="0" speed="11.11" length="492.80" shape="498.40,492.80 498.40,0.00"/>
    </edge>
    <edge id="34" from="3" to="4" priority="78">
        <lane id="34_0" index="0" speed="19.44" length="485.60" shape="507.20,498.40 992.80,498.40"/>
    </edge>
    <edge id="41" from="4" to="1" priority="78">
        <lane id="41_0" index="0" speed="19.44" length="485.60" shape="1001.60,507.20 1001.60,992.80"/>
    </edge>
    <edge id="413" from="4" to="13" priority="46">
        <lane id="413_0" index="0" speed="11.11" length="492.80" shape="998.40,492.80 998.40,0.00"/>
    </edge>
    <edge id="43" from="4" to="3" priority="46">
        <lane id="43_0" index="0" speed="11.11" length="485.60" shape="992.80,501.60 507.20,501.60"/>
    </edge>
    <edge id="45" from="4" to="5" priority="78">
        <lane id="45_0" index="0" speed="19.44" length="485.60" shape="1007.20,498.40 1492.80,498.40"/>
    </edge>
    <edge id="514" from="5" to="14" priority="78">
        <lane id="514_0" index="0" speed="19.44" length="492.80" shape="1498.40,492.80 1498.40,0.00"/>
    </edge>
    <edge id="515" from="5" to="15" priority="78">
        <lane id="515_0" index="0" speed="19.44" length="492.80" shape="1507.20,498.40 2000.00,498.40"/>
    </edge>
    <edge id="52" from="5" to="2" priority="46">
        <lane id="52_0" index="0" speed="11.11" length="485.60" shape="1501.60,507.20 1501.60,992.80"/>
    </edge>
    <edge id="54" from="5" to="4" priority="46">
        <lane id="54_0" index="0" speed="11.11" length="485.60" shape="1492.80,501.60 1007.20,501.60"/>
    </edge>
    <edge id="60" from="6" to="0" priority="78">
        <lane id="60_0" index="0" speed="19.44" length="492.80" shape="0.00,998.40 492.80,998.40"/>
    </edge>
    <edge id="70" from="7" to="0" priority="78">
        <lane id="70_0" index="0" speed="19.44" length="492.80" shape="498.40,1500.00 498.40,1007.20"/>
    </edge>
    <edge id="81" from="8" to="1" priority="78">
        <lane id="81_0" index="0" speed="19.44" length="492.80" shape="998.40,1500.00 998.40,1007.20"/>
    </edge>
    <edge id="92" from="9" to="2" priority="78">
        <lane id="92_0" index="0" speed="19.44" length="492.80" shape="1498.40,1500.00 1498.40,1007.20"/>
    </edge>

    <tlLogic id="0" type="static" programID="0" offset="0">
        <phase duration="40" state="GrGr"/>
        <phase duration="5"  state="yryr"/>
        <phase duration="40" state="rGrG"/>
        <phase duration="5"  state="ryry"/>
    </tlLogic>
    <tlLogic id="1" type="static" programID="0" offset="0">
        <phase duration="40" state="GrGr"/>
        <phase duration="5"  state="yryr"/>
        <phase duration="40" state="rGrG"/>
        <phase duration="5"  state="ryry"/>
    </tlLogic>
    <tlLogic id="2" type="static" programID="0" offset="0">
        <phase duration="40" state="GrGr"/>
        <phase duration="5"  state="yryr"/>
        <phase duration="40" state="rGrG"/>
        <phase duration="5"  state="ryry"/>
    </tlLogic>
    <tlLogic id="3" type="static" programID="0" offset="0">
        <phase duration="40" state="GrGr"/>
        <phase duration="5"  state="yryr"/>
        <phase duration="40" state="rGrG"/>
        <phase duration="5"  state="ryry"/>
    </tlLogic>
    <tlLogic id="4" type="static" programID="0" offset="0">
        <phase duration="40" state="GrGr"/>
        <phase duration="5"  state="yryr"/>
        <phase duration="40" state="rGrG"/>
        <phase duration="5"  state="ryry"/>
    </tlLogic>
    <tlLogic id="5" type="static" programID="0" offset="0">
        <phase duration="40" state="GrGr"/>
        <phase duration="5"  state="yryr"/>
        <phase duration="40" state="rGrG"/>
        <phase duration="5"  state="ryry"/>
    </tlLogic>

    <junction id="0" type="traffic_light" x="500.00" y="1000.00" incLanes="70_0 10_0 30_0 60_0" intLanes=":0_0_0 :0_1_0 :0_2_0 :0_3_0" shape="496.80,1007.20 503.20,1007.20 503.64,1004.98 504.20,1004.20 504.98,1003.64 505.98,1003.31 507.20,1003.20 507.20,996.80 504.98,996.36 504.20,995.80 503.64,995.02 503.31,994.02 503.20,992.80 496.80,992.80 496.36,995.02 495.80,995.80 495.02,996.36 494.02,996.69 492.80,996.80 492.80,1003.20 495.02,1003.64 495.80,1004.20 496.36,1004.98 496.69,1005.98">
        <request index="0" response="1010" foes="1010" cont="0"/>
        <request index="1" response="0000" foes="0101" cont="0"/>
        <request index="2" response="1010" foes="1010" cont="0"/>
        <request index="3" response="0000" foes="0101" cont="0"/>
    </junction>
    <junction id="1" type="traffic_light" x="1000.00" y="1000.00" incLanes="81_0 21_0 41_0 01_0" intLanes=":1_0_0 :1_1_0 :1_2_0 :1_3_0" shape="996.80,1007.20 1003.20,1007.20 1003.64,1004.98 1004.20,1004.20 1004.98,1003.64 1005.98,1003.31 1007.20,1003.20 1007.20,996.80 1004.98,996.36 1004.20,995.80 1003.64,995.02 1003.31,994.02 1003.20,992.80 996.80,992.80 996.36,995.02 995.80,995.80 995.02,996.36 994.02,996.69 992.80,996.80 992.80,1003.20 995.02,1003.64 995.80,1004.20 996.36,1004.98 996.69,1005.98">
        <request index="0" response="0000" foes="1010" cont="0"/>
        <request index="1" response="0101" foes="0101" cont="0"/>
        <request index="2" response="0000" foes="1010" cont="0"/>
        <request index="3" response="0101" foes="0101" cont="0"/>
    </junction>
    <junction id="10" type="priority" x="2000.00" y="1000.00" incLanes="210_0" intLanes=":10_0_0" shape="2000.00,1000.00 2000.00,996.80 2000.00,1000.00">
        <request index="0" response="0" foes="0" cont="0"/>
    </junction>
    <junction id="11" type="priority" x="0.00" y="500.00" incLanes="311_0" intLanes=":11_0_0" shape="0.00,500.00 0.00,503.20 0.00,500.00">
        <request index="0" response="0" foes="0" cont="0"/>
    </junction>
    <junction id="12" type="priority" x="500.00" y="0.00" incLanes="312_0" intLanes=":12_0_0" shape="500.00,0.00 496.80,0.00 500.00,0.00">
        <request index="0" response="0" foes="0" cont="0"/>
    </junction>
    <junction id="13" type="priority" x="1000.00" y="0.00" incLanes="413_0" intLanes=":13_0_0" shape="1000.00,0.00 996.80,0.00 1000.00,0.00">
        <request index="0" response="0" foes="0" cont="0"/>
    </junction>
    <junction id="14" type="priority" x="1500.00" y="0.00" incLanes="514_0" intLanes=":14_0_0" shape="1500.00,0.00 1496.80,0.00 1500.00,0.00">
        <request index="0" response="0" foes="0" cont="0"/>
    </junction>
    <junction id="15" type="priority" x="2000.00" y="500.00" incLanes="515_0" intLanes=":15_0_0" shape="2000.00,500.00 2000.00,496.80 2000.00,500.00">
        <request index="0" response="0" foes="0" cont="0"/>
    </junction>
    <junction id="2" type="traffic_light" x="1500.00" y="1000.00" incLanes="92_0 102_0 52_0 12_0" intLanes=":2_0_0 :2_1_0 :2_2_0 :2_3_0" shape="1496.80,1007.20 1503.20,1007.20 1503.64,1004.98 1504.20,1004.20 1504.98,1003.64 1505.98,1003.31 1507.20,1003.20 1507.20,996.80 1504.98,996.36 1504.20,995.80 1503.64,995.02 1503.31,994.02 1503.20,992.80 1496.80,992.80 1496.36,995.02 1495.80,995.80 1495.02,996.36 1494.02,996.69 1492.80,996.80 1492.80,1003.20 1495.02,1003.64 1495.80,1004.20 1496.36,1004.98 1496.69,1005.98">
        <request index="0" response="0000" foes="1010" cont="0"/>
        <request index="1" response="0001" foes="0101" cont="0"/>
        <request index="2" response="0010" foes="1010" cont="0"/>
        <request index="3" response="0101" foes="0101" cont="0"/>
    </junction>
    <junction id="3" type="traffic_light" x="500.00" y="500.00" incLanes="03_0 43_0 123_0 113_0" intLanes=":3_0_0 :3_1_0 :3_2_0 :3_3_0" shape="496.80,507.20 503.20,507.20 503.64,504.98 504.20,504.20 504.98,503.64 505.98,503.31 507.20,503.20 507.20,496.80 504.98,496.36 504.20,495.80 503.64,495.02 503.31,494.02 503.20,492.80 496.80,492.80 496.36,495.02 495.80,495.80 495.02,496.36 494.02,496.69 492.80,496.80 492.80,503.20 495.02,503.64 495.80,504.20 496.36,504.98 496.69,505.98">
        <request index="0" response="0000" foes="1010" cont="0"/>
        <request index="1" response="0101" foes="0101" cont="0"/>
        <request index="2" response="0000" foes="1010" cont="0"/>
        <request index="3" response="0101" foes="0101" cont="0"/>
    </junction>
    <junction id="4" type="traffic_light" x="1000.00" y="500.00" incLanes="14_0 54_0 134_0 34_0" intLanes=":4_0_0 :4_1_0 :4_2_0 :4_3_0" shape="996.80,507.20 1003.20,507.20 1003.64,504.98 1004.20,504.20 1004.98,503.64 1005.98,503.31 1007.20,503.20 1007.20,496.80 1004.98,496.36 1004.20,495.80 1003.64,495.02 1003.31,494.02 1003.20,492.80 996.80,492.80 996.36,495.02 995.80,495.80 995.02,496.36 994.02,496.69 992.80,496.80 992.80,503.20 995.02,503.64 995.80,504.20 996.36,504.98 996.69,505.98">
        <request index="0" response="1000" foes="1010" cont="0"/>
        <request index="1" response="0101" foes="0101" cont="0"/>
        <request index="2" response="0000" foes="1010" cont="0"/>
        <request index="3" response="0100" foes="0101" cont="0"/>
    </junction>
    <junction id="5" type="traffic_light" x="1500.00" y="500.00" incLanes="25_0 15i_0 145_0 45_0" intLanes=":5_0_0 :5_1_0 :5_2_0 :5_3_0" shape="1496.80,507.20 1503.20,507.20 1503.64,504.98 1504.20,504.20 1504.98,503.64 1505.98,503.31 1507.20,503.20 1507.20,496.80 1504.98,496.36 1504.20,495.80 1503.64,495.02 1503.31,494.02 1503.20,492.80 1496.80,492.80 1496.36,495.02 1495.80,495.80 1495.02,496.36 1494.02,496.69 1492.80,496.80 1492.80,503.20 1495.02,503.64 1495.80,504.20 1496.36,504.98 1496.69,505.98">
        <request index="0" response="1000" foes="1010" cont="0"/>
        <request index="1" response="0001" foes="0101" cont="0"/>
        <request index="2" response="1010" foes="1010" cont="0"/>
        <request index="3" response="0000" foes="0101" cont="0"/>
    </junction>
    <junction id="6" type="priority" x="0.00" y="1000.00" incLanes="06_0" intLanes=":6_0_0" shape="0.00,1000.00 0.00,1003.20 0.00,1000.00">
        <request index="0" response="0" foes="0" cont="0"/>
    </junction>
    <junction id="7" type="priority" x="500.00" y="1500.00" incLanes="07_0" intLanes=":7_0_0" shape="500.00,1500.00 503.20,1500.00 500.00,1500.00">
        <request index="0" response="0" foes="0" cont="0"/>
    </junction>
    <junction id="8" type="priority" x="1000.00" y="1500.00" incLanes="18_0" intLanes=":8_0_0" shape="1000.00,1500.00 1003.20,1500.00 1000.00,1500.00">
        <request index="0" response="0" foes="0" cont="0"/>
    </junction>
    <junction id="9" type="priority" x="1500.00" y="1500.00" incLanes="29_0" intLanes=":9_0_0" shape="1500.00,1500.00 1503.20,1500.00 1500.00,1500.00">
        <request index="0" response="0" foes="0" cont="0"/>
    </junction>

    <connection from="01" to="12" fromLane="0" toLane="0" via=":1_3_0" tl="1" linkIndex="3" dir="s" state="o"/>
    <connection from="03" to="312" fromLane="0" toLane="0" via=":3_0_0" tl="3" linkIndex="0" dir="s" state="O"/>
    <connection from="06" to="60" fromLane="0" toLane="0" via=":6_0_0" dir="t" state="M"/>
    <connection from="07" to="70" fromLane="0" toLane="0" via=":7_0_0" dir="t" state="M"/>
    <connection from="10" to="06" fromLane="0" toLane="0" via=":0_1_0" tl="0" linkIndex="1" dir="s" state="O"/>
    <connection from="102" to="21" fromLane="0" toLane="0" via=":2_1_0" tl="2" linkIndex="1" dir="s" state="o"/>
    <connection from="113" to="34" fromLane="0" toLane="0" via=":3_3_0" tl="3" linkIndex="3" dir="s" state="o"/>
    <connection from="12" to="210" fromLane="0" toLane="0" via=":2_3_0" tl="2" linkIndex="3" dir="s" state="o"/>
    <connection from="123" to="30" fromLane="0" toLane="0" via=":3_2_0" tl="3" linkIndex="2" dir="s" state="O"/>
    <connection from="134" to="41" fromLane="0" toLane="0" via=":4_2_0" tl="4" linkIndex="2" dir="s" state="O"/>
    <connection from="14" to="413" fromLane="0" toLane="0" via=":4_0_0" tl="4" linkIndex="0" dir="s" state="o"/>
    <connection from="145" to="52" fromLane="0" toLane="0" via=":5_2_0" tl="5" linkIndex="2" dir="s" state="o"/>
    <connection from="15i" to="54" fromLane="0" toLane="0" via=":5_1_0" tl="5" linkIndex="1" dir="s" state="o"/>
    <connection from="18" to="81" fromLane="0" toLane="0" via=":8_0_0" dir="t" state="M"/>
    <connection from="21" to="10" fromLane="0" toLane="0" via=":1_1_0" tl="1" linkIndex="1" dir="s" state="o"/>
    <connection from="210" to="102" fromLane="0" toLane="0" via=":10_0_0" dir="t" state="M"/>
    <connection from="25" to="514" fromLane="0" toLane="0" via=":5_0_0" tl="5" linkIndex="0" dir="s" state="o"/>
    <connection from="29" to="92" fromLane="0" toLane="0" via=":9_0_0" dir="t" state="M"/>
    <connection from="30" to="07" fromLane="0" toLane="0" via=":0_2_0" tl="0" linkIndex="2" dir="s" state="o"/>
    <connection from="311" to="113" fromLane="0" toLane="0" via=":11_0_0" dir="t" state="M"/>
    <connection from="312" to="123" fromLane="0" toLane="0" via=":12_0_0" dir="t" state="M"/>
    <connection from="34" to="45" fromLane="0" toLane="0" via=":4_3_0" tl="4" linkIndex="3" dir="s" state="o"/>
    <connection from="41" to="18" fromLane="0" toLane="0" via=":1_2_0" tl="1" linkIndex="2" dir="s" state="O"/>
    <connection from="413" to="134" fromLane="0" toLane="0" via=":13_0_0" dir="t" state="M"/>
    <connection from="43" to="311" fromLane="0" toLane="0" via=":3_1_0" tl="3" linkIndex="1" dir="s" state="o"/>
    <connection from="45" to="515" fromLane="0" toLane="0" via=":5_3_0" tl="5" linkIndex="3" dir="s" state="O"/>
    <connection from="514" to="145" fromLane="0" toLane="0" via=":14_0_0" dir="t" state="M"/>
    <connection from="515" to="15i" fromLane="0" toLane="0" via=":15_0_0" dir="t" state="M"/>
    <connection from="52" to="29" fromLane="0" toLane="0" via=":2_2_0" tl="2" linkIndex="2" dir="s" state="o"/>
    <connection from="54" to="43" fromLane="0" toLane="0" via=":4_1_0" tl="4" linkIndex="1" dir="s" state="o"/>
    <connection from="60" to="01" fromLane="0" toLane="0" via=":0_3_0" tl="0" linkIndex="3" dir="s" state="O"/>
    <connection from="70" to="03" fromLane="0" toLane="0" via=":0_0_0" tl="0" linkIndex="0" dir="s" state="o"/>
    <connection from="81" to="14" fromLane="0" toLane="0" via=":1_0_0" tl="1" linkIndex="0" dir="s" state="O"/>
    <connection from="92" to="25" fromLane="0" toLane="0" via=":2_0_0" tl="2" linkIndex="0" dir="s" state="O"/>

    <connection from=":0_0" to="03" fromLane="0" toLane="0" dir="s" state="M"/>
    <connection from=":0_1" to="06" fromLane="0" toLane="0" dir="s" state="M"/>
    <connection from=":0_2" to="07" fromLane="0" toLane="0" dir="s" state="M"/>
    <connection from=":0_3" to="01" fromLane="0" toLane="0" dir="s" state="M"/>
    <connection from=":1_0" to="14" fromLane="0" toLane="0" dir="s" state="M"/>
    <connection from=":1_1" to="10" fromLane="0" toLane="0" dir="s" state="M"/>
    <connection from=":1_2" to="18" fromLane="0" toLane="0" dir="s" state="M"/>
    <connection from=":1_3" to="12" fromLane="0" toLane="0" dir="s" state="M"/>
    <connection from=":10_0" to="102" fromLane="0" toLane="0" dir="t" state="M"/>
    <connection from=":11_0" to="113" fromLane="0" toLane="0" dir="t" state="M"/>
    <connection from=":12_0" to="123" fromLane="0" toLane="0" dir="t" state="M"/>
    <connection from=":13_0" to="134" fromLane="0" toLane="0" dir="t" state="M"/>
    <connection from=":14_0" to="145" fromLane="0" toLane="0" dir="t" state="M"/>
    <connection from=":15_0" to="15i" fromLane="0" toLane="0" dir="t" state="M"/>
    <connection from=":2_0" to="25" fromLane="0" toLane="0" dir="s" state="M"/>
    <connection from=":2_1" to="21" fromLane="0" toLane="0" dir="s" state="M"/>
    <connection from=":2_2" to="29" fromLane="0" toLane="0" dir="s" state="M"/>
    <connection from=":2_3" to="210" fromLane="0" toLane="0" dir="s" state="M"/>
    <connection from=":3_0" to="312" fromLane="0" toLane="0" dir="s" state="M"/>
    <connection from=":3_1" to="311" fromLane="0" toLane="0" dir="s" state="M"/>
    <connection from=":3_2" to="30" fromLane="0" toLane="0" dir="s" state="M"/>
    <connection from=":3_3" to="34" fromLane="0" toLane="0" dir="s" state="M"/>
    <connection from=":4_0" to="413" fromLane="0" toLane="0" dir="s" state="M"/>
    <connection from=":4_1" to="43" fromLane="0" toLane="0" dir="s" state="M"/>
    <connection from=":4_2" to="41" fromLane="0" toLane="0" dir="s" state="M"/>
    <connection from=":4_3" to="45" fromLane="0" toLane="0" dir="s" state="M"/>
    <connection from=":5_0" to="514" fromLane="0" toLane="0" dir="s" state="M"/>
    <connection from=":5_1" to="54" fromLane="0" toLane="0" dir="s" state="M"/>
    <connection from=":5_2" to="52" fromLane="0" toLane="0" dir="s" state="M"/>
    <connection from=":5_3" to="515" fromLane="0" toLane="0" dir="s" state="M"/>
    <connection from=":6_0" to="60" fromLane="0" toLane="0" dir="t" state="M"/>
    <connection from=":7_0" to="70" fromLane="0" toLane="0" dir="t" state="M"/>
    <connection from=":8_0" to="81" fromLane="0" toLane="0" dir="t" state="M"/>
    <connection from=":9_0" to="92" fromLane="0" toLane="0" dir="t" state="M"/>

</net>
