<?xml version="1.0" encoding="UTF-8"?>
<edges xmlns:xsi="http://www.w3.org/2001/XMLSchema-instance" xsi:noNamespaceSchemaLocation="http://sumo.dlr.de/xsd/edges_file.xsd">
   <edge id="10" from="1" to="0" priority="78" numLanes="1" speed="19.444" />
   <edge id="01" from="0" to="1" priority="46" numLanes="1" speed="11.111" />

   <edge id="21" from="2" to="1" priority="78" numLanes="1" speed="19.444" />
   <edge id="12" from="1" to="2" priority="46" numLanes="1" speed="11.111" />

   <edge id="34" from="3" to="4" priority="78" numLanes="1" speed="19.444" />
   <edge id="43" from="4" to="3" priority="46" numLanes="1" speed="11.111" />


   <edge id="45" from="4" to="5" priority="78" numLanes="1" speed="19.444" />
   <edge id="54" from="5" to="4" priority="46" numLanes="1" speed="11.111" />

   <edge id="60" from="6" to="0" priority="78" numLanes="1" speed="19.444" />
   <edge id="06" from="0" to="6" priority="46" numLanes="1" speed="11.111" />

   <edge id="70" from="7" to="0" priority="78" numLanes="1" speed="19.444" />
   <edge id="07" from="0" to="7" priority="46" numLanes="1" speed="11.111" />

   <edge id="81" from="8" to="1" priority="78" numLanes="1" speed="19.444" />
   <edge id="18" from="1" to="8" priority="46" numLanes="1" speed="11.111" />

   <edge id="92" from="9" to="2" priority="78" numLanes="1" speed="19.444" />
   <edge id="29" from="2" to="9" priority="46" numLanes="1" speed="11.111" />

   <edge id="102" from="10" to="2" priority="78" numLanes="1" speed="19.444" />
   <edge id="210" from="2" to="10" priority="46" numLanes="1" speed="11.111" />

   <edge id="113" from="11" to="3" priority="78" numLanes="1" speed="19.444" />
   <edge id="311" from="3" to="11" priority="46" numLanes="1" speed="11.111" />

   <edge id="123" from="12" to="3" priority="78" numLanes="1" speed="19.444" />
   <edge id="312" from="3" to="12" priority="46" numLanes="1" speed="11.111" />

   <edge id="03" from="0" to="3" priority="78" numLanes="1" speed="19.444" />
   <edge id="30" from="3" to="0" priority="46" numLanes="1" speed="11.111" />

   <edge id="41" from="4" to="1" priority="78" numLanes="1" speed="19.444" />
   <edge id="14" from="1" to="4" priority="46" numLanes="1" speed="11.111" />

   <edge id="134" from="13" to="4" priority="78" numLanes="1" speed="19.444" />
   <edge id="413" from="4" to="13" priority="46" numLanes="1" speed="11.111" />

   <edge id="25" from="2" to="5" priority="78" numLanes="1" speed="19.444" />
   <edge id="52" from="5" to="2" priority="46" numLanes="1" speed="11.111" />

   <edge id="514" from="5" to="14" priority="78" numLanes="1" speed="19.444" />
   <edge id="145" from="14" to="5" priority="46" numLanes="1" speed="11.111" />

   <edge id="515" from="5" to="15" priority="78" numLanes="1" speed="19.444" />
   <edge id="15i" from="15" to="5" priority="46" numLanes="1" speed="11.111" />
</edges>
