<?xml version="1.0" encoding="iso-8859-1"?>
<connections xmlns:xsi="http://www.w3.org/2001/XMLSchema-instance" xsi:noNamespaceSchemaLocation="http://sumo.dlr.de/xsd/connections_file.xsd">
	<connection from="30" to="01"/>
	<connection from="01" to="12"/>
	<connection from="12" to="27"/>

	<connection from="72" to="21"/>
	<connection from="21" to="10"/>
	<connection from="10" to="03"/>

	<connection from="40" to="08"/>
	<connection from="80" to="04"/>

	<connection from="51" to="19"/>
	<connection from="91" to="15"/>

	<connection from="62" to="210"/>
	<connection from="102" to="26"/>
</connections>
